Initialize SIGNATURE TABLE
ST_SET: 1
ST_WAY: 256
ST_TAG_BIT: 16
ST_TAG_MASK: ffff

Initialize PATTERN TABLE
PT_SET: 512
PT_WAY: 4
SIG_DELTA_BIT: 7
C_SIG_BIT: 4
C_DELTA_BIT: 4

Initialize PREFETCH FILTER
FILTER_SET: 1024

*** ChampSim Multicore Out-of-Order Simulator ***

Warmup Instructions: 50000000
Simulation Instructions: 50000000
Number of CPUs: 1
LLC sets: 2048
LLC ways: 16
Off-chip DRAM Size: 4096 MB Channels: 1 Width: 64-bit Data Rate: 6400 MT/s
CPU 0 runs ../IPC-traces//client_008.champsimtrace.xz
.xz
NUM_OF_IPS_IN_CRITICAL_IP_TRAINING: 64
NUM_OF_CRITICAL_IP_TRAINING_TABLE_WAYS: 2
NUM_OF_CRITICAL_IP_TRAINING_TABLE_SETS: 32
WOBBLY_CRITICAL_IP_CACHE_SETS: 32
WOBBLY_CRITICAL_IP_CACHE_WAYS: 4
BTB has LRU replacement policy
ITLB has LRU replacement policy
DTLB has LRU replacement policy
STLB has LRU replacement policy
CPU 0 L1I next line prefetcher
L1I has LRU replacement policy
L1D has LRU replacement policy
ST_WAYS: 256
PT_SETS: 512
Initialize SRRIP state for L2C
Initialize DRRIP state for LLC
Heartbeat CPU 0 instructions: 10000001 cycles: 3014402 heartbeat IPC: 3.31741 cumulative IPC: 3.31741 (Simulation time: 0 hr 3 min 50 sec) 
Heartbeat CPU 0 instructions: 20000001 cycles: 6039273 heartbeat IPC: 3.30593 cumulative IPC: 3.31166 (Simulation time: 0 hr 6 min 44 sec) 
Heartbeat CPU 0 instructions: 30000001 cycles: 9047688 heartbeat IPC: 3.32401 cumulative IPC: 3.31576 (Simulation time: 0 hr 9 min 34 sec) 
Heartbeat CPU 0 instructions: 40000000 cycles: 12083727 heartbeat IPC: 3.29377 cumulative IPC: 3.31024 (Simulation time: 0 hr 11 min 53 sec) 
Heartbeat CPU 0 instructions: 50000003 cycles: 15122748 heartbeat IPC: 3.29053 cumulative IPC: 3.30628 (Simulation time: 0 hr 14 min 2 sec) 

Warmup complete CPU 0 instructions: 50000003 cycles: 15122748 (Simulation time: 0 hr 14 min 2 sec) 

% increase in all ip prefetch 385.031
% increase in all ip prefetch -1.69823
Heartbeat CPU 0 instructions: 60000003 cycles: 30880308 heartbeat IPC: 0.634616 cumulative IPC: 0.634616 (Simulation time: 0 hr 16 min 45 sec) 
Heartbeat CPU 0 instructions: 70000001 cycles: 46021885 heartbeat IPC: 0.660433 cumulative IPC: 0.647267 (Simulation time: 0 hr 19 min 33 sec) 
Heartbeat CPU 0 instructions: 80000000 cycles: 62923906 heartbeat IPC: 0.591645 cumulative IPC: 0.6276 (Simulation time: 0 hr 22 min 9 sec) 
Heartbeat CPU 0 instructions: 90000001 cycles: 79546357 heartbeat IPC: 0.601596 cumulative IPC: 0.62089 (Simulation time: 0 hr 24 min 32 sec) 
Heartbeat CPU 0 instructions: 100000001 cycles: 93224874 heartbeat IPC: 0.731073 cumulative IPC: 0.640187 (Simulation time: 0 hr 27 min 17 sec) 
Finished CPU 0 instructions: 50000002 cycles: 78102127 cumulative IPC: 0.640187 (Simulation time: 0 hr 27 min 17 sec) 

ChampSim completed all CPUs

Region of Interest Statistics

CPU 0 cumulative IPC: 0.640187 instructions: 50000002 cycles: 78102127

CPU 0 Average Load ROB stall cycles: 2.38752e+07
CPU 0 Fraction of times ROB stalled by Loads: 44.3273
CPU 0 Percentage of Load stall cycles in Total stall cycles: 2.89933e+08
Issued all: 28739668
Issued LT all: 23045286
rob_not_full_when_issued_lt_all: 20721174
Issued LT one: 17568328
rob_not_full_when_issued_lt_one: 15576566
critical_ip_candidate_identification_operations: 6981906
critical_ip_candidate_identification_operation_per_cycle: 0.0893946
 Total stall cycles: 64851939
 Total load stall cycles: 188027132610393
Unique Load IPs: 47235
CPU 0 NUM of IPS identified critical: 263
CPU 0 Num of Load IPs stalling ROB: 29804
Threshold modification factor: -1
Max PIST entries: 64
Min PIST entries: 0
Avg PIST entries: 32
Trouble in retire width: 0.91559
MaC = Marked as critical.
lt_50_percent_before_Mac: 184
gt_90_percent_before_Mac: 14
gt_75_percent_before_Mac: 22
gt_50_percent_before_Mac: 43
stall_proportion_bin_same_before_after: 0
stall_proportion_bin_lower_before_after: 0
stall_proportion_bin_upper_before_after: 0
average_stall_proportion_before: 0.0521228
average_stall_proportion_after: 0.0528366
Critical IP stalls, total frequency: 1017215
Non-critical IP stalls, total frequency: 2473738
Total Freq all stalling IPs: 3490953
Critical_IP_Detector_Accuracy_70: 0.48289
Critical_IP_Detector_Accuracy_80: 0.745247
Critical_IP_Detector_Accuracy_90: 0.965779
Critical_IP_Detector_Coverage_70: 0.222417
Critical_IP_Detector_Coverage_80: 0.173298
Critical_IP_Detector_Coverage_90: 0.0997643
stat_90_percent_critical_ip_stalls_freq: 3141975
stat_90_percent_non_critical_ip_stalls_freq: 348978
AVERAGE_ROB_Occupancy_90_Percent_Critical_IP_Stalls: 76.7478
AVERAGE_ROB_Occupancy_90_Percent_Non_Critical_IP_Stalls: 45.3464
Critical_IP_ROB_Stalls_Bucket_0: 208809
Non-critical_IP_ROB_Stalls_Bucket_0: 1527570
Critical_IP_ROB_Stalls_Bucket_1: 386431
Non-critical_IP_ROB_Stalls_Bucket_1: 565992
Critical_IP_ROB_Stalls_Bucket_2: 186343
Non-critical_IP_ROB_Stalls_Bucket_2: 244506
Critical_IP_ROB_Stalls_Bucket_3: 63903
Non-critical_IP_ROB_Stalls_Bucket_3: 73535
Critical_IP_ROB_Stalls_Bucket_4: 29719
Non-critical_IP_ROB_Stalls_Bucket_4: 21237
Critical_IP_ROB_Stalls_Bucket_5: 28315
Non-critical_IP_ROB_Stalls_Bucket_5: 13192
Critical_IP_ROB_Stalls_Bucket_6: 113695
Non-critical_IP_ROB_Stalls_Bucket_6: 27706
0 => IPs accounting for >50 percent of stalls, 1 => 55, 2 => 60, 3 => 65 and so on till 90.
percent50: 50.0548 num IPs:  165
percent55: 55.0081 num IPs: 230
percent60: 60.0297 num IPs: 310
percent65: 65.034 num IPs: 418
percent70: 70.0165 num IPs: 571
percent75: 75.0066 num IPs: 795
percent80: 80.0072 num IPs: 1131
percent85: 85.0059 num IPs: 1644
percent90: 90.0033 num IPs: 2546
Critical_ROB_Stalls_Percent_0_Bucket_0: 763665
Non-critical_ROB_Stalls_Percent_0_Bucket_0: 972714
Critical_ROB_Stalls_Percent_0_Bucket_1: 496467
Non-critical_ROB_Stalls_Percent_0_Bucket_1: 455956
Critical_ROB_Stalls_Percent_0_Bucket_2: 231437
Non-critical_ROB_Stalls_Percent_0_Bucket_2: 199412
Critical_ROB_Stalls_Percent_0_Bucket_3: 79082
Non-critical_ROB_Stalls_Percent_0_Bucket_3: 58356
Critical_ROB_Stalls_Percent_0_Bucket_4: 31918
Non-critical_ROB_Stalls_Percent_0_Bucket_4: 19038
Critical_ROB_Stalls_Percent_0_Bucket_5: 31232
Non-critical_ROB_Stalls_Percent_0_Bucket_5: 10275
Critical_ROB_Stalls_Percent_0_Bucket_6: 113587
Non-critical_ROB_Stalls_Percent_0_Bucket_6: 27814
Critical_ROB_Stalls_Percent_1_Bucket_0: 847590
Non-critical_ROB_Stalls_Percent_1_Bucket_0: 888789
Critical_ROB_Stalls_Percent_1_Bucket_1: 546659
Non-critical_ROB_Stalls_Percent_1_Bucket_1: 405764
Critical_ROB_Stalls_Percent_1_Bucket_2: 260265
Non-critical_ROB_Stalls_Percent_1_Bucket_2: 170584
Critical_ROB_Stalls_Percent_1_Bucket_3: 83611
Non-critical_ROB_Stalls_Percent_1_Bucket_3: 53827
Critical_ROB_Stalls_Percent_1_Bucket_4: 33575
Non-critical_ROB_Stalls_Percent_1_Bucket_4: 17381
Critical_ROB_Stalls_Percent_1_Bucket_5: 32151
Non-critical_ROB_Stalls_Percent_1_Bucket_5: 9356
Critical_ROB_Stalls_Percent_1_Bucket_6: 116457
Non-critical_ROB_Stalls_Percent_1_Bucket_6: 24944
Critical_ROB_Stalls_Percent_2_Bucket_0: 940516
Non-critical_ROB_Stalls_Percent_2_Bucket_0: 795863
Critical_ROB_Stalls_Percent_2_Bucket_1: 593963
Non-critical_ROB_Stalls_Percent_2_Bucket_1: 358460
Critical_ROB_Stalls_Percent_2_Bucket_2: 282577
Non-critical_ROB_Stalls_Percent_2_Bucket_2: 148272
Critical_ROB_Stalls_Percent_2_Bucket_3: 90022
Non-critical_ROB_Stalls_Percent_2_Bucket_3: 47416
Critical_ROB_Stalls_Percent_2_Bucket_4: 35956
Non-critical_ROB_Stalls_Percent_2_Bucket_4: 15000
Critical_ROB_Stalls_Percent_2_Bucket_5: 33399
Non-critical_ROB_Stalls_Percent_2_Bucket_5: 8108
Critical_ROB_Stalls_Percent_2_Bucket_6: 119176
Non-critical_ROB_Stalls_Percent_2_Bucket_6: 22225
Critical_ROB_Stalls_Percent_3_Bucket_0: 1027823
Non-critical_ROB_Stalls_Percent_3_Bucket_0: 708556
Critical_ROB_Stalls_Percent_3_Bucket_1: 644616
Non-critical_ROB_Stalls_Percent_3_Bucket_1: 307807
Critical_ROB_Stalls_Percent_3_Bucket_2: 305329
Non-critical_ROB_Stalls_Percent_3_Bucket_2: 125520
Critical_ROB_Stalls_Percent_3_Bucket_3: 97943
Non-critical_ROB_Stalls_Percent_3_Bucket_3: 39495
Critical_ROB_Stalls_Percent_3_Bucket_4: 38237
Non-critical_ROB_Stalls_Percent_3_Bucket_4: 12719
Critical_ROB_Stalls_Percent_3_Bucket_5: 34499
Non-critical_ROB_Stalls_Percent_3_Bucket_5: 7008
Critical_ROB_Stalls_Percent_3_Bucket_6: 121862
Non-critical_ROB_Stalls_Percent_3_Bucket_6: 19539
Critical_ROB_Stalls_Percent_4_Bucket_0: 1119678
Non-critical_ROB_Stalls_Percent_4_Bucket_0: 616701
Critical_ROB_Stalls_Percent_4_Bucket_1: 691853
Non-critical_ROB_Stalls_Percent_4_Bucket_1: 260570
Critical_ROB_Stalls_Percent_4_Bucket_2: 326232
Non-critical_ROB_Stalls_Percent_4_Bucket_2: 104617
Critical_ROB_Stalls_Percent_4_Bucket_3: 105066
Non-critical_ROB_Stalls_Percent_4_Bucket_3: 32372
Critical_ROB_Stalls_Percent_4_Bucket_4: 40739
Non-critical_ROB_Stalls_Percent_4_Bucket_4: 10217
Critical_ROB_Stalls_Percent_4_Bucket_5: 35753
Non-critical_ROB_Stalls_Percent_4_Bucket_5: 5754
Critical_ROB_Stalls_Percent_4_Bucket_6: 124921
Non-critical_ROB_Stalls_Percent_4_Bucket_6: 16480
Critical_ROB_Stalls_Percent_5_Bucket_0: 1206389
Non-critical_ROB_Stalls_Percent_5_Bucket_0: 529990
Critical_ROB_Stalls_Percent_5_Bucket_1: 738204
Non-critical_ROB_Stalls_Percent_5_Bucket_1: 214219
Critical_ROB_Stalls_Percent_5_Bucket_2: 351268
Non-critical_ROB_Stalls_Percent_5_Bucket_2: 79581
Critical_ROB_Stalls_Percent_5_Bucket_3: 111520
Non-critical_ROB_Stalls_Percent_5_Bucket_3: 25918
Critical_ROB_Stalls_Percent_5_Bucket_4: 42332
Non-critical_ROB_Stalls_Percent_5_Bucket_4: 8624
Critical_ROB_Stalls_Percent_5_Bucket_5: 36818
Non-critical_ROB_Stalls_Percent_5_Bucket_5: 4689
Critical_ROB_Stalls_Percent_5_Bucket_6: 131915
Non-critical_ROB_Stalls_Percent_5_Bucket_6: 9486
Critical_ROB_Stalls_Percent_6_Bucket_0: 1298245
Non-critical_ROB_Stalls_Percent_6_Bucket_0: 438134
Critical_ROB_Stalls_Percent_6_Bucket_1: 785876
Non-critical_ROB_Stalls_Percent_6_Bucket_1: 166547
Critical_ROB_Stalls_Percent_6_Bucket_2: 372425
Non-critical_ROB_Stalls_Percent_6_Bucket_2: 58424
Critical_ROB_Stalls_Percent_6_Bucket_3: 119321
Non-critical_ROB_Stalls_Percent_6_Bucket_3: 18117
Critical_ROB_Stalls_Percent_6_Bucket_4: 44702
Non-critical_ROB_Stalls_Percent_6_Bucket_4: 6254
Critical_ROB_Stalls_Percent_6_Bucket_5: 38065
Non-critical_ROB_Stalls_Percent_6_Bucket_5: 3442
Critical_ROB_Stalls_Percent_6_Bucket_6: 134382
Non-critical_ROB_Stalls_Percent_6_Bucket_6: 7019
Critical_ROB_Stalls_Percent_7_Bucket_0: 1386460
Non-critical_ROB_Stalls_Percent_7_Bucket_0: 349919
Critical_ROB_Stalls_Percent_7_Bucket_1: 835836
Non-critical_ROB_Stalls_Percent_7_Bucket_1: 116587
Critical_ROB_Stalls_Percent_7_Bucket_2: 394240
Non-critical_ROB_Stalls_Percent_7_Bucket_2: 36609
Critical_ROB_Stalls_Percent_7_Bucket_3: 127107
Non-critical_ROB_Stalls_Percent_7_Bucket_3: 10331
Critical_ROB_Stalls_Percent_7_Bucket_4: 47377
Non-critical_ROB_Stalls_Percent_7_Bucket_4: 3579
Critical_ROB_Stalls_Percent_7_Bucket_5: 39614
Non-critical_ROB_Stalls_Percent_7_Bucket_5: 1893
Critical_ROB_Stalls_Percent_7_Bucket_6: 136882
Non-critical_ROB_Stalls_Percent_7_Bucket_6: 4519
Critical_ROB_Stalls_Percent_8_Bucket_0: 1490726
Non-critical_ROB_Stalls_Percent_8_Bucket_0: 245653
Critical_ROB_Stalls_Percent_8_Bucket_1: 881522
Non-critical_ROB_Stalls_Percent_8_Bucket_1: 70901
Critical_ROB_Stalls_Percent_8_Bucket_2: 410367
Non-critical_ROB_Stalls_Percent_8_Bucket_2: 20482
Critical_ROB_Stalls_Percent_8_Bucket_3: 131442
Non-critical_ROB_Stalls_Percent_8_Bucket_3: 5996
Critical_ROB_Stalls_Percent_8_Bucket_4: 48959
Non-critical_ROB_Stalls_Percent_8_Bucket_4: 1997
Critical_ROB_Stalls_Percent_8_Bucket_5: 40424
Non-critical_ROB_Stalls_Percent_8_Bucket_5: 1083
Critical_ROB_Stalls_Percent_8_Bucket_6: 138535
Non-critical_ROB_Stalls_Percent_8_Bucket_6: 2866
Average ROB occupancy Load Stall Begin: 64.6587
Average ROB occupancy Load Stall End: 73.6087
Min ROB occupancy Load Stall Begin: 1
Max ROB occupancy Load Stall Begin: 352
Min ROB occupancy Load Stall End: 1
Max ROB occupancy Load Stall End: 352
Average ROB occupancy Critical Load Stall Begin: 114.946
Average ROB occupancy Critical Load Stall End: 125.359
Min ROB occupancy Critical Load Stall Begin: 1
Max ROB occupancy Critical Load Stall Begin: 352
Min ROB occupancy Critical Load Stall End: 1
Max ROB occupancy Critical Load Stall End: 352
 ROB Load Stall Begin Bucket Count 0: 1999414
 ROB Load Stall End Bucket Count 0: 1736379
 ROB Critical Load Stall Begin Bucket Count 0: 225958
 ROB Critical Load Stall End Bucket Count 0: 159916
 ROB Load Stall Begin Bucket Count 1: 840248
 ROB Load Stall End Bucket Count 1: 952423
 ROB Critical Load Stall Begin Bucket Count 1: 328073
 ROB Critical Load Stall End Bucket Count 1: 329567
 ROB Load Stall Begin Bucket Count 2: 331510
 ROB Load Stall End Bucket Count 2: 430849
 ROB Critical Load Stall Begin Bucket Count 2: 114060
 ROB Critical Load Stall End Bucket Count 2: 159702
 ROB Load Stall Begin Bucket Count 3: 101488
 ROB Load Stall End Bucket Count 3: 137438
 ROB Critical Load Stall Begin Bucket Count 3: 45912
 ROB Critical Load Stall End Bucket Count 3: 57740
 ROB Load Stall Begin Bucket Count 4: 45656
 ROB Load Stall End Bucket Count 4: 50956
 ROB Critical Load Stall Begin Bucket Count 4: 25675
 ROB Critical Load Stall End Bucket Count 4: 27002
 ROB Load Stall Begin Bucket Count 5: 42782
 ROB Load Stall End Bucket Count 5: 41507
 ROB Critical Load Stall Begin Bucket Count 5: 28008
 ROB Critical Load Stall End Bucket Count 5: 26550
 ROB Load Stall Begin Bucket Count 6: 129855
 ROB Load Stall End Bucket Count 6: 141401
 ROB Critical Load Stall Begin Bucket Count 6: 100965
 ROB Critical Load Stall End Bucket Count 6: 108174
PIST Tag Read Accesses: 2490868
PIST Read Accesses: 1245434
PIST Tag Write Accesses: 2490868
PIST Write Accesses: 1245434
Criticality detector called times: 2623520
Max global_stall_cycles_count: 3646912
Threshold Modified: 1 times, factor: -1
Sturdy critical IP cache stats: 
 Unused entries: 0
CIC Tag Read Accesses: 0
CIC Read Accesses: 0
CIC Tag Write Accesses: 0
CIC Write Accesses: 0
Wobbly critical IP cache stats: 
 Unused entries: 0
CIC Tag Read Accesses: 91004809
CIC Read Accesses: 0
CIC Tag Write Accesses: 26969
CIC Write Accesses: 0
ITLB TOTAL     ACCESS:    9444596  HIT:    9223991  MISS:     220605  HIT %:    97.6642  MISS %:    2.33578   MPKI: 4.4121
ITLB LOAD TRANSLATION ACCESS:    8708044  HIT:    8663615  MISS:      44429  HIT %:    99.4898  MISS %:   0.510206   MPKI: 0.88858
ITLB TRANSLATION FROM L1D PREFETCHER ACCESS:     736552  HIT:     560376  MISS:     176176  HIT %:     76.081  MISS %:     23.919   MPKI: 3.52352
ITLBprefetch_cycle_count: 0 prefetches_per_prefetch_cycle: -nan
ITLB PREFETCH  REQUESTED:          0  ISSUED:          0  USEFUL:     136204  USELESS:      39975
ITLB USEFUL LOAD PREFETCHES:     136204 PREFETCH ISSUED TO LOWER LEVEL:          0  ACCURACY: inf
ITLB TIMELY PREFETCHES:     136204 LATE PREFETCHES: 941 DROPPED PREFETCHES: 1103
ITLB PREFETCHES SAME FILL-ORIGIN LEVEL: 0 DIFFERENT FILL-ORIGIN LEVEL: 0
ITLB AVERAGE MISS LATENCY: 146022 cycles
ITLB RQ	ACCESS:   11715003	FORWARD:          0	MERGED:    2249536	TO_CACHE:    9465467

DTLB TOTAL     ACCESS:   11130273  HIT:   10605587  MISS:     524686  HIT %:     95.286  MISS %:    4.71404   MPKI: 10.4937
DTLB LOAD TRANSLATION ACCESS:   11130273  HIT:   10605587  MISS:     524686  HIT %:     95.286  MISS %:    4.71404   MPKI: 10.4937
DTLBprefetch_cycle_count: 0 prefetches_per_prefetch_cycle: -nan
DTLB PREFETCH  REQUESTED:          0  ISSUED:          0  USEFUL:          0  USELESS:          0
DTLB USEFUL LOAD PREFETCHES:          0 PREFETCH ISSUED TO LOWER LEVEL:          0  ACCURACY: -nan
DTLB TIMELY PREFETCHES:          0 LATE PREFETCHES: 0 DROPPED PREFETCHES: 0
DTLB PREFETCHES SAME FILL-ORIGIN LEVEL: 0 DIFFERENT FILL-ORIGIN LEVEL: 0
DTLB AVERAGE MISS LATENCY: 9.9909 cycles
DTLB RQ	ACCESS:   14269325	FORWARD:          0	MERGED:    3111513	TO_CACHE:   11157812

STLB TOTAL     ACCESS:     745291  HIT:     738594  MISS:       6697  HIT %:    99.1014  MISS %:   0.898575   MPKI: 0.13394
STLB LOAD TRANSLATION ACCESS:     568174  HIT:     561857  MISS:       6317  HIT %:    98.8882  MISS %:    1.11181   MPKI: 0.12634
STLB TRANSLATION FROM L1D PREFETCHER ACCESS:     177117  HIT:     176737  MISS:        380  HIT %:    99.7855  MISS %:   0.214547   MPKI: 0.0076
STLBprefetch_cycle_count: 0 prefetches_per_prefetch_cycle: -nan
STLB PREFETCH  REQUESTED:          0  ISSUED:          0  USEFUL:        240  USELESS:        130
STLB USEFUL LOAD PREFETCHES:        240 PREFETCH ISSUED TO LOWER LEVEL:          0  ACCURACY: inf
STLB TIMELY PREFETCHES:        240 LATE PREFETCHES: 0 DROPPED PREFETCHES: 1103
STLB PREFETCHES SAME FILL-ORIGIN LEVEL: 0 DIFFERENT FILL-ORIGIN LEVEL: 0
STLB AVERAGE MISS LATENCY: 94.086 cycles
STLB RQ	ACCESS:     746394	FORWARD:          0	MERGED:          0	TO_CACHE:     746394

STLB Hit, L1D data hit: 0
STLB Hit, L2C data hit: 0
STLB Hit, LLC data hit: 0
STLB Hit, LLC data miss: 0
STLB STLB hints to L2: 0
L1D TOTAL     ACCESS:   13787632  HIT:   12917885  MISS:     869747  HIT %:    93.6918  MISS %:    6.30817   MPKI: 17.3949
L1D LOAD      ACCESS:    8899843  HIT:    8147591  MISS:     752252  HIT %:    91.5476  MISS %:    8.45242   MPKI: 15.045
L1D RFO       ACCESS:    4887789  HIT:    4770294  MISS:     117495  HIT %:    97.5962  MISS %:    2.40385   MPKI: 2.3499
L1Dprefetch_cycle_count: 0 prefetches_per_prefetch_cycle: -nan
L1D PREFETCH  REQUESTED:          0  ISSUED:          0  USEFUL:          0  USELESS:          0
L1D USEFUL LOAD PREFETCHES:          0 PREFETCH ISSUED TO LOWER LEVEL:          0  ACCURACY: -nan
L1D TIMELY PREFETCHES:          0 LATE PREFETCHES: 0 DROPPED PREFETCHES: 0
L1D PREFETCHES SAME FILL-ORIGIN LEVEL: 0 DIFFERENT FILL-ORIGIN LEVEL: 0
L1D AVERAGE MISS LATENCY: 43.1211 cycles
L1D RQ	ACCESS:   13253675	FORWARD:          0	MERGED:    4141103	TO_CACHE:    8972312
L1D WQ	ACCESS:    5473943	FORWARD:     140260	MERGED:     176930	TO_CACHE:    5297013

L1D UNIQUE REGIONS ACCESSED: 0
L1D REGIONS CONFLICTS: 0
L1D Cross Page Prefetch Requests: 0
L1D Same Page Prefetch Requests: 0
L1D ROI Sum of L1D PQ occupancy: 0
L1D PREFETCHES PUSHED FROM L2C: 0
L1I TOTAL     ACCESS:   11668677  HIT:   10581407  MISS:    1087270  HIT %:    90.6821  MISS %:    9.31785   MPKI: 21.7454
L1I LOAD      ACCESS:    9923674  HIT:    9825926  MISS:      97748  HIT %:     99.015  MISS %:   0.984998   MPKI: 1.95496
L1I PREFETCH  ACCESS:    1745003  HIT:     755481  MISS:     989522  HIT %:     43.294  MISS %:     56.706   MPKI: 19.7904
L1Iprefetch_cycle_count: 0 prefetches_per_prefetch_cycle: inf
L1I PREFETCH  REQUESTED:    1824963  ISSUED:    1823381  USEFUL:     702884  USELESS:     286740
L1I USEFUL LOAD PREFETCHES:     702884 PREFETCH ISSUED TO LOWER LEVEL:    1001061  ACCURACY: 70.2139
L1I TIMELY PREFETCHES:     702884 LATE PREFETCHES: 10368 DROPPED PREFETCHES: 2208
L1I PREFETCHES SAME FILL-ORIGIN LEVEL: 1001061 DIFFERENT FILL-ORIGIN LEVEL: 0
L1I AVERAGE MISS LATENCY: 335213 cycles
L1I RQ	ACCESS:   14727807	FORWARD:          0	MERGED:    4792766	TO_CACHE:    9935041
L1I PQ	ACCESS:    1823381	FORWARD:          0	MERGED:      43419	TO_CACHE:    1779962

BTB TOTAL     ACCESS:    8519581  HIT:    7693788  MISS:     825793  HIT %:    90.3071  MISS %:    9.69288   MPKI: 16.5159
BTB BRANCH_DIRECT_JUMP	ACCESS:     510116  HIT:     502542  MISS:       7574
BTB BRANCH_INDIRECT	ACCESS:     225730  HIT:     169070  MISS:      56660
BTB BRANCH_CONDITIONAL	ACCESS:    5216028  HIT:    5189632  MISS:      26396
BTB BRANCH_DIRECT_CALL	ACCESS:     600746  HIT:     593897  MISS:       6849
BTB BRANCH_INDIRECT_CALL	ACCESS:     682990  HIT:     527153  MISS:     155837
BTB BRANCH_RETURN	ACCESS:    1283971  HIT:     711494  MISS:     572477
BTB BRANCH_OTHER ACCESS:          0  HIT:          0  MISS:          0

L2C TOTAL     ACCESS:    3318414  HIT:    2947736  MISS:     370678  HIT %:    88.8297  MISS %:    11.1703   MPKI: 7.41356
L2C LOAD      ACCESS:     839624  HIT:     669972  MISS:     169652  HIT %:    79.7943  MISS %:    20.2057   MPKI: 3.39304
L2C DATA LOAD MPKI: 3.12642
L2C INSTRUCTION LOAD MPKI: 0.26662
L2C RFO       ACCESS:     117493  HIT:      15591  MISS:     101902  HIT %:    13.2697  MISS %:    86.7303   MPKI: 2.03804
L2C PREFETCH  ACCESS:    2185185  HIT:    2092599  MISS:      92586  HIT %:     95.763  MISS %:    4.23699   MPKI: 1.85172
L2C DATA PREFETCH MPKI: 1.2071
L2C INSTRUCTION PREFETCH MPKI: 0.64462
L2C WRITEBACK ACCESS:     167983  HIT:     164123  MISS:       3860  HIT %:    97.7021  MISS %:    2.29785   MPKI: 0.0772
L2C LOAD TRANSLATION ACCESS:       6606  HIT:       4199  MISS:       2407  HIT %:    63.5634  MISS %:    36.4366   MPKI: 0.04814
L2C TRANSLATION FROM L1D PREFETCHER ACCESS:       1523  HIT:       1252  MISS:        271  HIT %:    82.2062  MISS %:    17.7938   MPKI: 0.00542
L2Cprefetch_cycle_count: 1479695 prefetches_per_prefetch_cycle: 1.65345
L2C PREFETCH  REQUESTED:    2447318  ISSUED:    2446608  USEFUL:      29416  USELESS:      66199
L2C USEFUL LOAD PREFETCHES:      29416 PREFETCH ISSUED TO LOWER LEVEL:     650377  ACCURACY: 4.52292
L2C TIMELY PREFETCHES:      29416 LATE PREFETCHES: 6558 DROPPED PREFETCHES: 0
L2C PREFETCHES SAME FILL-ORIGIN LEVEL: 67506 DIFFERENT FILL-ORIGIN LEVEL: 551233
L2C AVERAGE MISS LATENCY: 85.4113 cycles
L2C RQ	ACCESS:     965256	FORWARD:          0	MERGED:          0	TO_CACHE:     965246
L2C WQ	ACCESS:     167983	FORWARD:         10	MERGED:          0	TO_CACHE:     167983
L2C PQ	ACCESS:    3446498	FORWARD:          0	MERGED:     675720	TO_CACHE:    2770778

L2C Instructions Evicting Data 32276
L2C Translations Evicting Data 1927
L2C Data Evicting Data 280620
L2C Instructions Evicting Instructions 12646
L2C Translations Evicting Instructions 716
L2C Data Evicting Instructions 35951
L2C Instructions Evicting Translations 640
L2C Translations Evicting Translations 35
L2C Data Evicting Translations 2007
L2C Dense regions hint from L2: 0
PSCL5 TOTAL     ACCESS:       7800  HIT:       7800  MISS:          0  HIT %:        100  MISS %:          0   MPKI: 0
PSCL5 LOAD TRANSLATION ACCESS:       6317  HIT:       6317  MISS:          0  HIT %:        100  MISS %:          0   MPKI: 0
PSCL5 TRANSLATION FROM L1D PREFETCHER ACCESS:       1483  HIT:       1483  MISS:          0  HIT %:        100  MISS %:          0   MPKI: 0
PSCL5prefetch_cycle_count: 0 prefetches_per_prefetch_cycle: -nan
PSCL5 PREFETCH  REQUESTED:          0  ISSUED:          0  USEFUL:          0  USELESS:          0
PSCL5 USEFUL LOAD PREFETCHES:          0 PREFETCH ISSUED TO LOWER LEVEL:          0  ACCURACY: -nan
PSCL5 TIMELY PREFETCHES:          0 LATE PREFETCHES: 0 DROPPED PREFETCHES: 0
PSCL5 PREFETCHES SAME FILL-ORIGIN LEVEL: 0 DIFFERENT FILL-ORIGIN LEVEL: 0

PSCL4 TOTAL     ACCESS:       7800  HIT:       7800  MISS:          0  HIT %:        100  MISS %:          0   MPKI: 0
PSCL4 LOAD TRANSLATION ACCESS:       6317  HIT:       6317  MISS:          0  HIT %:        100  MISS %:          0   MPKI: 0
PSCL4 TRANSLATION FROM L1D PREFETCHER ACCESS:       1483  HIT:       1483  MISS:          0  HIT %:        100  MISS %:          0   MPKI: 0
PSCL4prefetch_cycle_count: 0 prefetches_per_prefetch_cycle: -nan
PSCL4 PREFETCH  REQUESTED:          0  ISSUED:          0  USEFUL:          0  USELESS:          0
PSCL4 USEFUL LOAD PREFETCHES:          0 PREFETCH ISSUED TO LOWER LEVEL:          0  ACCURACY: -nan
PSCL4 TIMELY PREFETCHES:          0 LATE PREFETCHES: 0 DROPPED PREFETCHES: 0
PSCL4 PREFETCHES SAME FILL-ORIGIN LEVEL: 0 DIFFERENT FILL-ORIGIN LEVEL: 0

PSCL3 TOTAL     ACCESS:       7738  HIT:       7730  MISS:          8  HIT %:    99.8966  MISS %:   0.103386   MPKI: 0.00016
PSCL3 LOAD TRANSLATION ACCESS:       6261  HIT:       6253  MISS:          8  HIT %:    99.8722  MISS %:   0.127775   MPKI: 0.00016
PSCL3 TRANSLATION FROM L1D PREFETCHER ACCESS:       1477  HIT:       1477  MISS:          0  HIT %:        100  MISS %:          0   MPKI: 0
PSCL3prefetch_cycle_count: 0 prefetches_per_prefetch_cycle: -nan
PSCL3 PREFETCH  REQUESTED:          0  ISSUED:          0  USEFUL:          0  USELESS:          0
PSCL3 USEFUL LOAD PREFETCHES:          0 PREFETCH ISSUED TO LOWER LEVEL:          0  ACCURACY: -nan
PSCL3 TIMELY PREFETCHES:          0 LATE PREFETCHES: 0 DROPPED PREFETCHES: 0
PSCL3 PREFETCHES SAME FILL-ORIGIN LEVEL: 0 DIFFERENT FILL-ORIGIN LEVEL: 0

PSCL2 TOTAL     ACCESS:       7774  HIT:       7473  MISS:        301  HIT %:    96.1281  MISS %:    3.87188   MPKI: 0.00602
PSCL2 LOAD TRANSLATION ACCESS:       6329  HIT:       6028  MISS:        301  HIT %:    95.2441  MISS %:    4.75589   MPKI: 0.00602
PSCL2 TRANSLATION FROM L1D PREFETCHER ACCESS:       1445  HIT:       1445  MISS:          0  HIT %:        100  MISS %:          0   MPKI: 0
PSCL2prefetch_cycle_count: 0 prefetches_per_prefetch_cycle: -nan
PSCL2 PREFETCH  REQUESTED:          0  ISSUED:          0  USEFUL:          0  USELESS:          0
PSCL2 USEFUL LOAD PREFETCHES:          0 PREFETCH ISSUED TO LOWER LEVEL:          0  ACCURACY: -nan
PSCL2 TIMELY PREFETCHES:          0 LATE PREFETCHES: 0 DROPPED PREFETCHES: 0
PSCL2 PREFETCHES SAME FILL-ORIGIN LEVEL: 0 DIFFERENT FILL-ORIGIN LEVEL: 0

LLC TOTAL     ACCESS:    1034097  HIT:     836290  MISS:     197807  HIT %:    80.8715  MISS %:    19.1285   MPKI: 3.95614
LLC LOAD      ACCESS:     163107  HIT:     134444  MISS:      28663  HIT %:    82.4269  MISS %:    17.5731   MPKI: 0.57326
LLC RFO       ACCESS:     101888  HIT:       7863  MISS:      94025  HIT %:     7.7173  MISS %:    92.2827   MPKI: 1.8805
LLC PREFETCH  ACCESS:     639712  HIT:     572582  MISS:      67130  HIT %:    89.5062  MISS %:    10.4938   MPKI: 1.3426
LLC WRITEBACK ACCESS:     126712  HIT:     119811  MISS:       6901  HIT %:    94.5538  MISS %:    5.44621   MPKI: 0.13802
LLC LOAD TRANSLATION ACCESS:       2407  HIT:       1427  MISS:        980  HIT %:    59.2854  MISS %:    40.7146   MPKI: 0.0196
LLC TRANSLATION FROM L1D PREFETCHER ACCESS:        271  HIT:        163  MISS:        108  HIT %:    60.1476  MISS %:    39.8524   MPKI: 0.00216
LLCprefetch_cycle_count: 0 prefetches_per_prefetch_cycle: -nan
LLC PREFETCH  REQUESTED:          0  ISSUED:          0  USEFUL:      14724  USELESS:      59730
LLC USEFUL LOAD PREFETCHES:      14724 PREFETCH ISSUED TO LOWER LEVEL:      68988  ACCURACY: 21.3428
LLC TIMELY PREFETCHES:      14724 LATE PREFETCHES: 1858 DROPPED PREFETCHES: 0
LLC PREFETCHES SAME FILL-ORIGIN LEVEL: 49893 DIFFERENT FILL-ORIGIN LEVEL: 0
LLC AVERAGE MISS LATENCY: 143.818 cycles
LLC RQ	ACCESS:     267674	FORWARD:          0	MERGED:          0	TO_CACHE:     267673
LLC WQ	ACCESS:     126712	FORWARD:          1	MERGED:          0	TO_CACHE:     126712
LLC PQ	ACCESS:     650377	FORWARD:          0	MERGED:       2693	TO_CACHE:     647684

LLC Dense regions hint to LLC: 0

RAW hits: 1381144
Loads Generated: 14634820
Loads sent to L1D: 13253675
Stores Generated: 5473941
Stores sent to L1D: 5473943
Major fault: 0 Minor fault: 5379
Allocated PAGES: 5379
I-Shadow cache 408 bytes
Touched + WorthPF tables 6144 bytes 
MMA filter 174 bytes 
FNL filter 272 bytes 
TOTAL PREFETCHER STORAGE SIZE: 25174 bytes
CPU 0 L1I next line prefetcher final stats
total_pref_operate_instances_l2: 1737337
dynamic_config_counter_instances_l2_1: 1660240
dynamic_config_counter_instances_l2_2: 12423
dynamic_config_counter_instances_l2_3: 64674
dynamic_config_counter_instances_l2_4: 0
dynamic_config_counter_instances_l2_5: 0
regions_captured: 4087
 All Calls: 5137357
 Critical Calls: 5137357
------------------
Depth Distribution
------------------
depth 0: 0
depth 1: 4700334
depth 2: 1823103
depth 3: 100911
depth 4: 11481
depth 5: 5960
depth 6: 4495
depth 7: 3064
depth 8: 1952
depth 9: 722
depth 10: 347
depth 11: 80
depth 12: 0
depth 13: 0
depth 14: 0
depth 15: 0
depth 16: 0
depth 17: 0
depth 18: 0
depth 19: 0
depth 20: 0
depth 21: 0
depth 22: 0
depth 23: 0
depth 24: 0
depth 25: 0
depth 26: 0
depth 27: 0
depth 28: 0
depth 29: 0
Total: 6652449
-----------------------------
-----------------------------
	Captured at Filter
-----------------------------
depth 0: 0
depth 1: 638521
depth 2: 299362
depth 3: 26000
depth 4: 2134
depth 5: 1409
depth 6: 1306
depth 7: 1095
depth 8: 789
depth 9: 364
depth 10: 178
depth 11: 48
depth 12: 0
depth 13: 0
depth 14: 0
depth 15: 0
depth 16: 0
depth 17: 0
depth 18: 0
depth 19: 0
depth 20: 0
depth 21: 0
depth 22: 0
depth 23: 0
depth 24: 0
depth 25: 0
depth 26: 0
depth 27: 0
depth 28: 0
depth 29: 0
-----------------------------
-----------------------------
		Lost at Page
-----------------------------
depth 0: 0
depth 1: 122531
depth 2: 55216
depth 3: 5847
depth 4: 1529
depth 5: 627
depth 6: 604
depth 7: 541
depth 8: 434
depth 9: 206
depth 10: 114
depth 11: 30
depth 12: 0
depth 13: 0
depth 14: 0
depth 15: 0
depth 16: 0
depth 17: 0
depth 18: 0
depth 19: 0
depth 20: 0
depth 21: 0
depth 22: 0
depth 23: 0
depth 24: 0
depth 25: 0
depth 26: 0
depth 27: 0
depth 28: 0
depth 29: 0
-----------------------------
-----------------------------
	Lost due to PQ Size
-----------------------------
20092
-----------------------------
ST read accesses: 1532794
ST write accesses: 204543
PT read accesses: 25901445
PT write accesses: 2081016
FILTER read accesses: 5289656
FILTER write accesses: 1421381
GHR read accesses: 2383426
GHR write accesses: 114565
GHR counter read accesses: 21522022
GHR counter write accesses: 2832772
ST tag read accesses: 773466524
ST tag write accesses: 91505073

DRAM Statistics
 CHANNEL 0
 RQ ROW_BUFFER_HIT:      53874  ROW_BUFFER_MISS:     137020
 DBUS_CONGESTED:        199
 WQ ROW_BUFFER_HIT:      15744  ROW_BUFFER_MISS:      74144  FULL:          0

 AVG_CONGESTED_CYCLE: 4
 All warmup complete: 2
Channel 0 Bank busy for read cycles: 0
Channel 0 Bank busy for write cycles: 0
Channel 0
Rank 0
0banks busy for read cycles: 56099970
0banks busy for write cycles: 30567
1banks busy for read cycles: 9652143
1banks busy for write cycles: 4063651
2banks busy for read cycles: 2936264
2banks busy for write cycles: 1359476
3banks busy for read cycles: 1043642
3banks busy for write cycles: 672448
4banks busy for read cycles: 391681
4banks busy for write cycles: 383328
5banks busy for read cycles: 187991
5banks busy for write cycles: 249904
6banks busy for read cycles: 122788
6banks busy for write cycles: 183461
7banks busy for read cycles: 93929
7banks busy for write cycles: 175693
8banks busy for read cycles: 89353
8banks busy for write cycles: 365839

CPU 0 Branch Prediction Accuracy: 98.6482% MPKI: 3.15508 Average ROB Occupancy at Mispredict: 53.7957
Branch types
NOT_BRANCH: 38329454 76.6589%
BRANCH_DIRECT_JUMP: 510116 1.02023%
BRANCH_INDIRECT: 225730 0.45146%
BRANCH_CONDITIONAL: 8366707 16.7334%
BRANCH_DIRECT_CALL: 600746 1.20149%
BRANCH_INDIRECT_CALL: 682990 1.36598%
BRANCH_RETURN: 1283971 2.56794%
BRANCH_OTHER: 0 0%

DRAM PAGES: 1048576
Allocated PAGES: 5379
