
*** ChampSim Multicore Out-of-Order Simulator ***

Warmup Instructions: 50000000
Simulation Instructions: 50000000
Number of CPUs: 1
LLC sets: 2048
LLC ways: 16
Off-chip DRAM Size: 4096 MB Channels: 1 Width: 64-bit Data Rate: 6400 MT/s
CPU 0 runs ../IPC-traces//client_006.champsimtrace.xz
.xz
NUM_OF_IPS_IN_CRITICAL_IP_TRAINING: 64
NUM_OF_CRITICAL_IP_TRAINING_TABLE_WAYS: 2
NUM_OF_CRITICAL_IP_TRAINING_TABLE_SETS: 32
WOBBLY_CRITICAL_IP_CACHE_SETS: 32
WOBBLY_CRITICAL_IP_CACHE_WAYS: 4
BTB has LRU replacement policy
ITLB has LRU replacement policy
DTLB has LRU replacement policy
STLB has LRU replacement policy
CPU 0 L1I next line prefetcher
L1I has LRU replacement policy
IP Table Entries: 64
L1D has LRU replacement policy
Initialize SRRIP state for L2C
Initialize DRRIP state for LLC
Heartbeat CPU 0 instructions: 10000001 cycles: 3367376 heartbeat IPC: 2.96967 cumulative IPC: 2.96967 (Simulation time: 0 hr 2 min 0 sec) 
Heartbeat CPU 0 instructions: 20000002 cycles: 6630415 heartbeat IPC: 3.06463 cumulative IPC: 3.0164 (Simulation time: 0 hr 3 min 56 sec) 
Heartbeat CPU 0 instructions: 30000003 cycles: 9427052 heartbeat IPC: 3.57572 cumulative IPC: 3.18233 (Simulation time: 0 hr 5 min 39 sec) 
Heartbeat CPU 0 instructions: 40000000 cycles: 12354999 heartbeat IPC: 3.41536 cumulative IPC: 3.23756 (Simulation time: 0 hr 7 min 26 sec) 
Heartbeat CPU 0 instructions: 50000003 cycles: 15553394 heartbeat IPC: 3.12657 cumulative IPC: 3.21473 (Simulation time: 0 hr 9 min 17 sec) 

Warmup complete CPU 0 instructions: 50000003 cycles: 15553394 (Simulation time: 0 hr 9 min 17 sec) 

% increase in all ip prefetch 282.875
% increase in all ip prefetch 18.5998
% increase in all ip prefetch 27.4436
% increase in all ip prefetch 2.36831
Heartbeat CPU 0 instructions: 60000002 cycles: 30065957 heartbeat IPC: 0.689058 cumulative IPC: 0.689058 (Simulation time: 0 hr 11 min 37 sec) 
Heartbeat CPU 0 instructions: 70000000 cycles: 46980248 heartbeat IPC: 0.591216 cumulative IPC: 0.636398 (Simulation time: 0 hr 14 min 2 sec) 
Heartbeat CPU 0 instructions: 80000002 cycles: 61608917 heartbeat IPC: 0.683589 cumulative IPC: 0.651388 (Simulation time: 0 hr 16 min 18 sec) 
Heartbeat CPU 0 instructions: 90000003 cycles: 76308428 heartbeat IPC: 0.680295 cumulative IPC: 0.658382 (Simulation time: 0 hr 18 min 24 sec) 
Heartbeat CPU 0 instructions: 100000001 cycles: 90610522 heartbeat IPC: 0.699198 cumulative IPC: 0.666159 (Simulation time: 0 hr 20 min 31 sec) 
Finished CPU 0 instructions: 50000002 cycles: 75057129 cumulative IPC: 0.666159 (Simulation time: 0 hr 20 min 31 sec) 

ChampSim completed all CPUs

Region of Interest Statistics

CPU 0 cumulative IPC: 0.666159 instructions: 50000002 cycles: 75057129

CPU 0 Average Load ROB stall cycles: 1.80394e+07
CPU 0 Fraction of times ROB stalled by Loads: 33.631
CPU 0 Percentage of Load stall cycles in Total stall cycles: 2.03307e+08
Issued all: 29752504
Issued LT all: 23553555
rob_not_full_when_issued_lt_all: 19509189
Issued LT one: 19472116
rob_not_full_when_issued_lt_one: 15672792
 Total stall cycles: 62785184
 Total load stall cycles: 127646805209350
Unique Load IPs: 14924
CPU 0 NUM of IPS identified critical: 70
CPU 0 Num of Load IPs stalling ROB: 9930
Threshold modification factor: -3
Max PIST entries: 64
Min PIST entries: 0
Avg PIST entries: 32
Trouble in retire width: 0.875731
MaC = Marked as critical.
lt_50_percent_before_Mac: 55
gt_90_percent_before_Mac: 5
gt_75_percent_before_Mac: 5
gt_50_percent_before_Mac: 5
stall_proportion_bin_same_before_after: 0
stall_proportion_bin_lower_before_after: 0
stall_proportion_bin_upper_before_after: 0
average_stall_proportion_before: 0.0517962
average_stall_proportion_after: 0.0573265
Critical IP stalls, total frequency: 610346
Non-critical IP stalls, total frequency: 1769384
Total Freq all stalling IPs: 2379730
Critical_IP_Detector_Accuracy_70: 0.757143
Critical_IP_Detector_Accuracy_80: 0.871429
Critical_IP_Detector_Accuracy_90: 0.928571
Critical_IP_Detector_Coverage_70: 0.174342
Critical_IP_Detector_Coverage_80: 0.123732
Critical_IP_Detector_Coverage_90: 0.0795594
stat_90_percent_critical_ip_stalls_freq: 2142058
stat_90_percent_non_critical_ip_stalls_freq: 237672
AVERAGE_ROB_Occupancy_90_Percent_Critical_IP_Stalls: 77.9955
AVERAGE_ROB_Occupancy_90_Percent_Non_Critical_IP_Stalls: 81.7129
Critical_IP_ROB_Stalls_Bucket_0: 306004
Non-critical_IP_ROB_Stalls_Bucket_0: 993333
Critical_IP_ROB_Stalls_Bucket_1: 124097
Non-critical_IP_ROB_Stalls_Bucket_1: 371330
Critical_IP_ROB_Stalls_Bucket_2: 57856
Non-critical_IP_ROB_Stalls_Bucket_2: 190996
Critical_IP_ROB_Stalls_Bucket_3: 24457
Non-critical_IP_ROB_Stalls_Bucket_3: 96440
Critical_IP_ROB_Stalls_Bucket_4: 14367
Non-critical_IP_ROB_Stalls_Bucket_4: 45905
Critical_IP_ROB_Stalls_Bucket_5: 12147
Non-critical_IP_ROB_Stalls_Bucket_5: 26760
Critical_IP_ROB_Stalls_Bucket_6: 71418
Non-critical_IP_ROB_Stalls_Bucket_6: 44620
0 => IPs accounting for >50 percent of stalls, 1 => 55, 2 => 60, 3 => 65 and so on till 90.
percent50: 50.0454 num IPs:  126
percent55: 55.0125 num IPs: 158
percent60: 60.0338 num IPs: 196
percent65: 65.0648 num IPs: 243
percent70: 70.0559 num IPs: 304
percent75: 75.0225 num IPs: 385
percent80: 80.0006 num IPs: 493
percent85: 85.0296 num IPs: 623
percent90: 90.0125 num IPs: 817
Critical_ROB_Stalls_Percent_0_Bucket_0: 692672
Non-critical_ROB_Stalls_Percent_0_Bucket_0: 606665
Critical_ROB_Stalls_Percent_0_Bucket_1: 245921
Non-critical_ROB_Stalls_Percent_0_Bucket_1: 249506
Critical_ROB_Stalls_Percent_0_Bucket_2: 105488
Non-critical_ROB_Stalls_Percent_0_Bucket_2: 143364
Critical_ROB_Stalls_Percent_0_Bucket_3: 59032
Non-critical_ROB_Stalls_Percent_0_Bucket_3: 61865
Critical_ROB_Stalls_Percent_0_Bucket_4: 24388
Non-critical_ROB_Stalls_Percent_0_Bucket_4: 35884
Critical_ROB_Stalls_Percent_0_Bucket_5: 14677
Non-critical_ROB_Stalls_Percent_0_Bucket_5: 24230
Critical_ROB_Stalls_Percent_0_Bucket_6: 48768
Non-critical_ROB_Stalls_Percent_0_Bucket_6: 67270
Critical_ROB_Stalls_Percent_1_Bucket_0: 777164
Non-critical_ROB_Stalls_Percent_1_Bucket_0: 522173
Critical_ROB_Stalls_Percent_1_Bucket_1: 265726
Non-critical_ROB_Stalls_Percent_1_Bucket_1: 229701
Critical_ROB_Stalls_Percent_1_Bucket_2: 114552
Non-critical_ROB_Stalls_Percent_1_Bucket_2: 134300
Critical_ROB_Stalls_Percent_1_Bucket_3: 61140
Non-critical_ROB_Stalls_Percent_1_Bucket_3: 59757
Critical_ROB_Stalls_Percent_1_Bucket_4: 25322
Non-critical_ROB_Stalls_Percent_1_Bucket_4: 34950
Critical_ROB_Stalls_Percent_1_Bucket_5: 15273
Non-critical_ROB_Stalls_Percent_1_Bucket_5: 23634
Critical_ROB_Stalls_Percent_1_Bucket_6: 49973
Non-critical_ROB_Stalls_Percent_1_Bucket_6: 66065
Critical_ROB_Stalls_Percent_2_Bucket_0: 845433
Non-critical_ROB_Stalls_Percent_2_Bucket_0: 453904
Critical_ROB_Stalls_Percent_2_Bucket_1: 273436
Non-critical_ROB_Stalls_Percent_2_Bucket_1: 221991
Critical_ROB_Stalls_Percent_2_Bucket_2: 123670
Non-critical_ROB_Stalls_Percent_2_Bucket_2: 125182
Critical_ROB_Stalls_Percent_2_Bucket_3: 65569
Non-critical_ROB_Stalls_Percent_2_Bucket_3: 55328
Critical_ROB_Stalls_Percent_2_Bucket_4: 27938
Non-critical_ROB_Stalls_Percent_2_Bucket_4: 32334
Critical_ROB_Stalls_Percent_2_Bucket_5: 16892
Non-critical_ROB_Stalls_Percent_2_Bucket_5: 22015
Critical_ROB_Stalls_Percent_2_Bucket_6: 75704
Non-critical_ROB_Stalls_Percent_2_Bucket_6: 40334
Critical_ROB_Stalls_Percent_3_Bucket_0: 915891
Non-critical_ROB_Stalls_Percent_3_Bucket_0: 383446
Critical_ROB_Stalls_Percent_3_Bucket_1: 295379
Non-critical_ROB_Stalls_Percent_3_Bucket_1: 200048
Critical_ROB_Stalls_Percent_3_Bucket_2: 135694
Non-critical_ROB_Stalls_Percent_3_Bucket_2: 113158
Critical_ROB_Stalls_Percent_3_Bucket_3: 69956
Non-critical_ROB_Stalls_Percent_3_Bucket_3: 50941
Critical_ROB_Stalls_Percent_3_Bucket_4: 32044
Non-critical_ROB_Stalls_Percent_3_Bucket_4: 28228
Critical_ROB_Stalls_Percent_3_Bucket_5: 18625
Non-critical_ROB_Stalls_Percent_3_Bucket_5: 20282
Critical_ROB_Stalls_Percent_3_Bucket_6: 80778
Non-critical_ROB_Stalls_Percent_3_Bucket_6: 35260
Critical_ROB_Stalls_Percent_4_Bucket_0: 966741
Non-critical_ROB_Stalls_Percent_4_Bucket_0: 332596
Critical_ROB_Stalls_Percent_4_Bucket_1: 319068
Non-critical_ROB_Stalls_Percent_4_Bucket_1: 176359
Critical_ROB_Stalls_Percent_4_Bucket_2: 157794
Non-critical_ROB_Stalls_Percent_4_Bucket_2: 91058
Critical_ROB_Stalls_Percent_4_Bucket_3: 81021
Non-critical_ROB_Stalls_Percent_4_Bucket_3: 39876
Critical_ROB_Stalls_Percent_4_Bucket_4: 36681
Non-critical_ROB_Stalls_Percent_4_Bucket_4: 23591
Critical_ROB_Stalls_Percent_4_Bucket_5: 20910
Non-critical_ROB_Stalls_Percent_4_Bucket_5: 17997
Critical_ROB_Stalls_Percent_4_Bucket_6: 84925
Non-critical_ROB_Stalls_Percent_4_Bucket_6: 31113
Critical_ROB_Stalls_Percent_5_Bucket_0: 1029781
Non-critical_ROB_Stalls_Percent_5_Bucket_0: 269556
Critical_ROB_Stalls_Percent_5_Bucket_1: 341250
Non-critical_ROB_Stalls_Percent_5_Bucket_1: 154177
Critical_ROB_Stalls_Percent_5_Bucket_2: 170757
Non-critical_ROB_Stalls_Percent_5_Bucket_2: 78095
Critical_ROB_Stalls_Percent_5_Bucket_3: 88065
Non-critical_ROB_Stalls_Percent_5_Bucket_3: 32832
Critical_ROB_Stalls_Percent_5_Bucket_4: 40381
Non-critical_ROB_Stalls_Percent_5_Bucket_4: 19891
Critical_ROB_Stalls_Percent_5_Bucket_5: 25271
Non-critical_ROB_Stalls_Percent_5_Bucket_5: 13636
Critical_ROB_Stalls_Percent_5_Bucket_6: 89827
Non-critical_ROB_Stalls_Percent_5_Bucket_6: 26211
Critical_ROB_Stalls_Percent_6_Bucket_0: 1067011
Non-critical_ROB_Stalls_Percent_6_Bucket_0: 232326
Critical_ROB_Stalls_Percent_6_Bucket_1: 378099
Non-critical_ROB_Stalls_Percent_6_Bucket_1: 117328
Critical_ROB_Stalls_Percent_6_Bucket_2: 197319
Non-critical_ROB_Stalls_Percent_6_Bucket_2: 51533
Critical_ROB_Stalls_Percent_6_Bucket_3: 95176
Non-critical_ROB_Stalls_Percent_6_Bucket_3: 25721
Critical_ROB_Stalls_Percent_6_Bucket_4: 42393
Non-critical_ROB_Stalls_Percent_6_Bucket_4: 17879
Critical_ROB_Stalls_Percent_6_Bucket_5: 27563
Non-critical_ROB_Stalls_Percent_6_Bucket_5: 11344
Critical_ROB_Stalls_Percent_6_Bucket_6: 96237
Non-critical_ROB_Stalls_Percent_6_Bucket_6: 19801
Critical_ROB_Stalls_Percent_7_Bucket_0: 1123748
Non-critical_ROB_Stalls_Percent_7_Bucket_0: 175589
Critical_ROB_Stalls_Percent_7_Bucket_1: 409073
Non-critical_ROB_Stalls_Percent_7_Bucket_1: 86354
Critical_ROB_Stalls_Percent_7_Bucket_2: 209905
Non-critical_ROB_Stalls_Percent_7_Bucket_2: 38947
Critical_ROB_Stalls_Percent_7_Bucket_3: 100623
Non-critical_ROB_Stalls_Percent_7_Bucket_3: 20274
Critical_ROB_Stalls_Percent_7_Bucket_4: 49427
Non-critical_ROB_Stalls_Percent_7_Bucket_4: 10845
Critical_ROB_Stalls_Percent_7_Bucket_5: 30707
Non-critical_ROB_Stalls_Percent_7_Bucket_5: 8200
Critical_ROB_Stalls_Percent_7_Bucket_6: 99992
Non-critical_ROB_Stalls_Percent_7_Bucket_6: 16046
Critical_ROB_Stalls_Percent_8_Bucket_0: 1185343
Non-critical_ROB_Stalls_Percent_8_Bucket_0: 113994
Critical_ROB_Stalls_Percent_8_Bucket_1: 435753
Non-critical_ROB_Stalls_Percent_8_Bucket_1: 59674
Critical_ROB_Stalls_Percent_8_Bucket_2: 221098
Non-critical_ROB_Stalls_Percent_8_Bucket_2: 27754
Critical_ROB_Stalls_Percent_8_Bucket_3: 107661
Non-critical_ROB_Stalls_Percent_8_Bucket_3: 13236
Critical_ROB_Stalls_Percent_8_Bucket_4: 52730
Non-critical_ROB_Stalls_Percent_8_Bucket_4: 7542
Critical_ROB_Stalls_Percent_8_Bucket_5: 33120
Non-critical_ROB_Stalls_Percent_8_Bucket_5: 5787
Critical_ROB_Stalls_Percent_8_Bucket_6: 106353
Non-critical_ROB_Stalls_Percent_8_Bucket_6: 9685
Average ROB occupancy Load Stall Begin: 66.3052
Average ROB occupancy Load Stall End: 78.3667
Min ROB occupancy Load Stall Begin: 1
Max ROB occupancy Load Stall Begin: 352
Min ROB occupancy Load Stall End: 1
Max ROB occupancy Load Stall End: 352
Average ROB occupancy Critical Load Stall Begin: 92.2918
Average ROB occupancy Critical Load Stall End: 101.343
Min ROB occupancy Critical Load Stall Begin: 2
Max ROB occupancy Critical Load Stall Begin: 352
Min ROB occupancy Critical Load Stall End: 2
Max ROB occupancy Critical Load Stall End: 352
 ROB Load Stall Begin Bucket Count 0: 1516965
 ROB Load Stall End Bucket Count 0: 1299337
 ROB Critical Load Stall Begin Bucket Count 0: 302651
 ROB Critical Load Stall End Bucket Count 0: 261084
 ROB Load Stall Begin Bucket Count 1: 395356
 ROB Load Stall End Bucket Count 1: 495427
 ROB Critical Load Stall Begin Bucket Count 1: 71222
 ROB Critical Load Stall End Bucket Count 1: 98269
 ROB Load Stall Begin Bucket Count 2: 198334
 ROB Load Stall End Bucket Count 2: 248852
 ROB Critical Load Stall Begin Bucket Count 2: 34640
 ROB Critical Load Stall End Bucket Count 2: 43327
 ROB Load Stall Begin Bucket Count 3: 88079
 ROB Load Stall End Bucket Count 3: 120897
 ROB Critical Load Stall Begin Bucket Count 3: 16957
 ROB Critical Load Stall End Bucket Count 3: 19696
 ROB Load Stall Begin Bucket Count 4: 46035
 ROB Load Stall End Bucket Count 4: 60272
 ROB Critical Load Stall Begin Bucket Count 4: 11697
 ROB Critical Load Stall End Bucket Count 4: 11900
 ROB Load Stall Begin Bucket Count 5: 35168
 ROB Load Stall End Bucket Count 5: 38907
 ROB Critical Load Stall Begin Bucket Count 5: 10726
 ROB Critical Load Stall End Bucket Count 5: 9468
 ROB Load Stall Begin Bucket Count 6: 99793
 ROB Load Stall End Bucket Count 6: 116038
 ROB Critical Load Stall Begin Bucket Count 6: 62254
 ROB Critical Load Stall End Bucket Count 6: 66403
PIST Tag Read Accesses: 3032994
PIST Read Accesses: 1516497
PIST Tag Write Accesses: 3032994
PIST Write Accesses: 1516497
Criticality detector called times: 1869649
Max global_stall_cycles_count: 4843006
Threshold Modified: 3 times, factor: -3
Sturdy critical IP cache stats: 
 Unused entries: 0
CIC Tag Read Accesses: 0
CIC Read Accesses: 0
CIC Tag Write Accesses: 0
CIC Write Accesses: 0
Wobbly critical IP cache stats: 
 Unused entries: 61
CIC Tag Read Accesses: 68019569
CIC Read Accesses: 0
CIC Tag Write Accesses: 51433
CIC Write Accesses: 0
ITLB TOTAL     ACCESS:    8334422  HIT:    8134966  MISS:     199456  HIT %:    97.6068  MISS %:    2.39316   MPKI: 3.98912
ITLB LOAD TRANSLATION ACCESS:    7593818  HIT:    7576303  MISS:      17515  HIT %:    99.7694  MISS %:   0.230648   MPKI: 0.3503
ITLB TRANSLATION FROM L1D PREFETCHER ACCESS:     740604  HIT:     558663  MISS:     181941  HIT %:    75.4334  MISS %:    24.5666   MPKI: 3.63882
ITLB PREFETCH  REQUESTED:          0  ISSUED:          0  USEFUL:     150106  USELESS:      31832
ITLB USEFUL LOAD PREFETCHES:     150106 PREFETCH ISSUED TO LOWER LEVEL:          0  ACCURACY: inf
ITLB TIMELY PREFETCHES:     150106 LATE PREFETCHES: 195 DROPPED PREFETCHES: 14
ITLB PREFETCHES SAME FILL-ORIGIN LEVEL: 0 DIFFERENT FILL-ORIGIN LEVEL: 0
ITLB AVERAGE MISS LATENCY: 47857.1 cycles
ITLB RQ	ACCESS:   11057013	FORWARD:          0	MERGED:    2712759	TO_CACHE:    8344254

DTLB TOTAL     ACCESS:    9004149  HIT:    8712934  MISS:     291215  HIT %:    96.7658  MISS %:    3.23423   MPKI: 5.8243
DTLB LOAD TRANSLATION ACCESS:    9004149  HIT:    8712934  MISS:     291215  HIT %:    96.7658  MISS %:    3.23423   MPKI: 5.8243
DTLB PREFETCH  REQUESTED:          0  ISSUED:          0  USEFUL:          0  USELESS:          0
DTLB USEFUL LOAD PREFETCHES:          0 PREFETCH ISSUED TO LOWER LEVEL:          0  ACCURACY: -nan
DTLB TIMELY PREFETCHES:          0 LATE PREFETCHES: 0 DROPPED PREFETCHES: 0
DTLB PREFETCHES SAME FILL-ORIGIN LEVEL: 0 DIFFERENT FILL-ORIGIN LEVEL: 0
DTLB AVERAGE MISS LATENCY: 18.4282 cycles
DTLB RQ	ACCESS:   11002615	FORWARD:          0	MERGED:    1981185	TO_CACHE:    9021430

STLB TOTAL     ACCESS:     725269  HIT:     699945  MISS:      25324  HIT %:    96.5083  MISS %:    3.49167   MPKI: 0.50648
STLB LOAD TRANSLATION ACCESS:     308535  HIT:     284909  MISS:      23626  HIT %:    92.3425  MISS %:    7.65748   MPKI: 0.47252
STLB TRANSLATION FROM L1D PREFETCHER ACCESS:     416734  HIT:     415036  MISS:       1698  HIT %:    99.5925  MISS %:   0.407454   MPKI: 0.03396
STLB PREFETCH  REQUESTED:          0  ISSUED:          0  USEFUL:       1107  USELESS:        608
STLB USEFUL LOAD PREFETCHES:       1107 PREFETCH ISSUED TO LOWER LEVEL:          0  ACCURACY: inf
STLB TIMELY PREFETCHES:       1107 LATE PREFETCHES: 0 DROPPED PREFETCHES: 14
STLB PREFETCHES SAME FILL-ORIGIN LEVEL: 0 DIFFERENT FILL-ORIGIN LEVEL: 0
STLB AVERAGE MISS LATENCY: 126.974 cycles
STLB RQ	ACCESS:     838238	FORWARD:          0	MERGED:     112955	TO_CACHE:     725283

STLB Hit, L1D data hit: 0
STLB Hit, L2C data hit: 0
STLB Hit, LLC data hit: 0
STLB Hit, LLC data miss: 0
STLB STLB hints to L2: 0
L1D TOTAL     ACCESS:   11051339  HIT:   10515873  MISS:     535466  HIT %:    95.1547  MISS %:    4.84526   MPKI: 10.7093
L1D LOAD      ACCESS:    6496999  HIT:    6067320  MISS:     429679  HIT %:    93.3865  MISS %:     6.6135   MPKI: 8.59358
L1D RFO       ACCESS:    4342069  HIT:    4306240  MISS:      35829  HIT %:    99.1748  MISS %:    0.82516   MPKI: 0.71658
L1D PREFETCH  ACCESS:     212271  HIT:     142313  MISS:      69958  HIT %:    67.0431  MISS %:    32.9569   MPKI: 1.39916
L1D PREFETCH  REQUESTED:     695450  ISSUED:     695165  USEFUL:      40615  USELESS:      29339
L1D USEFUL LOAD PREFETCHES:      40615 PREFETCH ISSUED TO LOWER LEVEL:     167319  ACCURACY: 24.274
L1D TIMELY PREFETCHES:      40615 LATE PREFETCHES: 97136 DROPPED PREFETCHES: 0
L1D PREFETCHES SAME FILL-ORIGIN LEVEL: 167319 DIFFERENT FILL-ORIGIN LEVEL: 0
L1D AVERAGE MISS LATENCY: 1.22104e+07 cycles
L1D RQ	ACCESS:   10562447	FORWARD:          0	MERGED:    3912119	TO_CACHE:    6563425
L1D WQ	ACCESS:    4525584	FORWARD:      86962	MERGED:      86394	TO_CACHE:    4439190
L1D PQ	ACCESS:     347612	FORWARD:          0	MERGED:          0	TO_CACHE:     347553

L1D UNIQUE REGIONS ACCESSED: 0
L1D REGIONS CONFLICTS: 0
L1D Cross Page Prefetch Requests: 0
L1D Same Page Prefetch Requests: 354556
L1D ROI Sum of L1D PQ occupancy: 5392458
L1D PREFETCHES PUSHED FROM L2C: 0
L1I TOTAL     ACCESS:   11039397  HIT:   10065018  MISS:     974379  HIT %:    91.1736  MISS %:    8.82638   MPKI: 19.4876
L1I LOAD      ACCESS:    9116416  HIT:    9094891  MISS:      21525  HIT %:    99.7639  MISS %:   0.236113   MPKI: 0.4305
L1I PREFETCH  ACCESS:    1922981  HIT:     970127  MISS:     952854  HIT %:    50.4491  MISS %:    49.5509   MPKI: 19.0571
L1I PREFETCH  REQUESTED:    1969260  ISSUED:    1964612  USEFUL:     752684  USELESS:     200175
L1I USEFUL LOAD PREFETCHES:     752684 PREFETCH ISSUED TO LOWER LEVEL:     959058  ACCURACY: 78.4816
L1I TIMELY PREFETCHES:     752684 LATE PREFETCHES: 6204 DROPPED PREFETCHES: 25
L1I PREFETCHES SAME FILL-ORIGIN LEVEL: 959058 DIFFERENT FILL-ORIGIN LEVEL: 0
L1I AVERAGE MISS LATENCY: 349069 cycles
L1I RQ	ACCESS:   13293065	FORWARD:          0	MERGED:    4172542	TO_CACHE:    9120523
L1I PQ	ACCESS:    1964612	FORWARD:          0	MERGED:      28122	TO_CACHE:    1936490

BTB TOTAL     ACCESS:    5652927  HIT:    5410510  MISS:     242417  HIT %:    95.7117  MISS %:    4.28834   MPKI: 4.84834
BTB BRANCH_DIRECT_JUMP	ACCESS:     413829  HIT:     410707  MISS:       3122
BTB BRANCH_INDIRECT	ACCESS:      47058  HIT:      28780  MISS:      18278
BTB BRANCH_CONDITIONAL	ACCESS:    3935184  HIT:    3928918  MISS:       6266
BTB BRANCH_DIRECT_CALL	ACCESS:     536885  HIT:     534001  MISS:       2884
BTB BRANCH_INDIRECT_CALL	ACCESS:      90642  HIT:      74824  MISS:      15818
BTB BRANCH_RETURN	ACCESS:     629329  HIT:     433280  MISS:     196049
BTB BRANCH_OTHER ACCESS:          0  HIT:          0  MISS:          0

L2C TOTAL     ACCESS:    1695020  HIT:    1216876  MISS:     478144  HIT %:    71.7912  MISS %:    28.2088   MPKI: 9.56288
L2C LOAD      ACCESS:     347786  HIT:      85527  MISS:     262259  HIT %:    24.5918  MISS %:    75.4082   MPKI: 5.24518
L2C DATA LOAD MPKI: 5.11932
L2C INSTRUCTION LOAD MPKI: 0.12586
L2C RFO       ACCESS:      35600  HIT:       8959  MISS:      26641  HIT %:    25.1657  MISS %:    74.8343   MPKI: 0.53282
L2C PREFETCH  ACCESS:    1126377  HIT:     953619  MISS:     172758  HIT %:    84.6625  MISS %:    15.3375   MPKI: 3.45516
L2C DATA PREFETCH MPKI: 2.86538
L2C INSTRUCTION PREFETCH MPKI: 0.58978
L2C WRITEBACK ACCESS:     156971  HIT:     153472  MISS:       3499  HIT %:    97.7709  MISS %:    2.22907   MPKI: 0.06998
L2C LOAD TRANSLATION ACCESS:      26232  HIT:      14447  MISS:      11785  HIT %:     55.074  MISS %:     44.926   MPKI: 0.2357
L2C TRANSLATION FROM L1D PREFETCHER ACCESS:       2054  HIT:        852  MISS:       1202  HIT %:      41.48  MISS %:      58.52   MPKI: 0.02404
L2C PREFETCH  REQUESTED:          0  ISSUED:          0  USEFUL:       3840  USELESS:     168373
L2C USEFUL LOAD PREFETCHES:       3840 PREFETCH ISSUED TO LOWER LEVEL:     172758  ACCURACY: 2.22276
L2C TIMELY PREFETCHES:       3840 LATE PREFETCHES: 0 DROPPED PREFETCHES: 0
L2C PREFETCHES SAME FILL-ORIGIN LEVEL: 0 DIFFERENT FILL-ORIGIN LEVEL: 0
L2C AVERAGE MISS LATENCY: 130.881 cycles
L2C RQ	ACCESS:     411754	FORWARD:          0	MERGED:          0	TO_CACHE:     411672
L2C WQ	ACCESS:     156971	FORWARD:         82	MERGED:          0	TO_CACHE:     156971
L2C PQ	ACCESS:    1126377	FORWARD:          0	MERGED:          0	TO_CACHE:    1126377

L2C Instructions Evicting Data 30026
L2C Translations Evicting Data 10940
L2C Data Evicting Data 383366
L2C Instructions Evicting Instructions 4509
L2C Translations Evicting Instructions 1517
L2C Data Evicting Instructions 31206
L2C Instructions Evicting Translations 1247
L2C Translations Evicting Translations 530
L2C Data Evicting Translations 11304
L2C Dense regions hint from L2: 0
PSCL5 TOTAL     ACCESS:      25338  HIT:      25338  MISS:          0  HIT %:        100  MISS %:          0   MPKI: 0
PSCL5 LOAD TRANSLATION ACCESS:      23626  HIT:      23626  MISS:          0  HIT %:        100  MISS %:          0   MPKI: 0
PSCL5 TRANSLATION FROM L1D PREFETCHER ACCESS:       1712  HIT:       1712  MISS:          0  HIT %:        100  MISS %:          0   MPKI: 0
PSCL5 PREFETCH  REQUESTED:          0  ISSUED:          0  USEFUL:          0  USELESS:          0
PSCL5 USEFUL LOAD PREFETCHES:          0 PREFETCH ISSUED TO LOWER LEVEL:          0  ACCURACY: -nan
PSCL5 TIMELY PREFETCHES:          0 LATE PREFETCHES: 0 DROPPED PREFETCHES: 0
PSCL5 PREFETCHES SAME FILL-ORIGIN LEVEL: 0 DIFFERENT FILL-ORIGIN LEVEL: 0

PSCL4 TOTAL     ACCESS:      22359  HIT:      22334  MISS:         25  HIT %:    99.8882  MISS %:   0.111812   MPKI: 0.0005
PSCL4 LOAD TRANSLATION ACCESS:      20846  HIT:      20821  MISS:         25  HIT %:    99.8801  MISS %:   0.119927   MPKI: 0.0005
PSCL4 TRANSLATION FROM L1D PREFETCHER ACCESS:       1513  HIT:       1513  MISS:          0  HIT %:        100  MISS %:          0   MPKI: 0
PSCL4 PREFETCH  REQUESTED:          0  ISSUED:          0  USEFUL:          0  USELESS:          0
PSCL4 USEFUL LOAD PREFETCHES:          0 PREFETCH ISSUED TO LOWER LEVEL:          0  ACCURACY: -nan
PSCL4 TIMELY PREFETCHES:          0 LATE PREFETCHES: 0 DROPPED PREFETCHES: 0
PSCL4 PREFETCHES SAME FILL-ORIGIN LEVEL: 0 DIFFERENT FILL-ORIGIN LEVEL: 0

PSCL3 TOTAL     ACCESS:      25252  HIT:      25161  MISS:         91  HIT %:    99.6396  MISS %:   0.360367   MPKI: 0.00182
PSCL3 LOAD TRANSLATION ACCESS:      23593  HIT:      23502  MISS:         91  HIT %:    99.6143  MISS %:   0.385708   MPKI: 0.00182
PSCL3 TRANSLATION FROM L1D PREFETCHER ACCESS:       1659  HIT:       1659  MISS:          0  HIT %:        100  MISS %:          0   MPKI: 0
PSCL3 PREFETCH  REQUESTED:          0  ISSUED:          0  USEFUL:          0  USELESS:          0
PSCL3 USEFUL LOAD PREFETCHES:          0 PREFETCH ISSUED TO LOWER LEVEL:          0  ACCURACY: -nan
PSCL3 TIMELY PREFETCHES:          0 LATE PREFETCHES: 0 DROPPED PREFETCHES: 0
PSCL3 PREFETCHES SAME FILL-ORIGIN LEVEL: 0 DIFFERENT FILL-ORIGIN LEVEL: 0

PSCL2 TOTAL     ACCESS:      25336  HIT:      22484  MISS:       2852  HIT %:    88.7433  MISS %:    11.2567   MPKI: 0.05704
PSCL2 LOAD TRANSLATION ACCESS:      23937  HIT:      21085  MISS:       2852  HIT %:    88.0854  MISS %:    11.9146   MPKI: 0.05704
PSCL2 TRANSLATION FROM L1D PREFETCHER ACCESS:       1399  HIT:       1399  MISS:          0  HIT %:        100  MISS %:          0   MPKI: 0
PSCL2 PREFETCH  REQUESTED:          0  ISSUED:          0  USEFUL:          0  USELESS:          0
PSCL2 USEFUL LOAD PREFETCHES:          0 PREFETCH ISSUED TO LOWER LEVEL:          0  ACCURACY: -nan
PSCL2 TIMELY PREFETCHES:          0 LATE PREFETCHES: 0 DROPPED PREFETCHES: 0
PSCL2 PREFETCHES SAME FILL-ORIGIN LEVEL: 0 DIFFERENT FILL-ORIGIN LEVEL: 0

LLC TOTAL     ACCESS:     599621  HIT:     310039  MISS:     289582  HIT %:    51.7058  MISS %:    48.2942   MPKI: 5.79164
LLC LOAD      ACCESS:     262259  HIT:      72343  MISS:     189916  HIT %:    27.5846  MISS %:    72.4154   MPKI: 3.79832
LLC RFO       ACCESS:      26641  HIT:       1990  MISS:      24651  HIT %:    7.46969  MISS %:    92.5303   MPKI: 0.49302
LLC PREFETCH  ACCESS:     172758  HIT:     112383  MISS:      60375  HIT %:    65.0523  MISS %:    34.9477   MPKI: 1.2075
LLC WRITEBACK ACCESS:     124976  HIT:     117471  MISS:       7505  HIT %:    93.9948  MISS %:    6.00515   MPKI: 0.1501
LLC LOAD TRANSLATION ACCESS:      11785  HIT:       5251  MISS:       6534  HIT %:    44.5566  MISS %:    55.4434   MPKI: 0.13068
LLC TRANSLATION FROM L1D PREFETCHER ACCESS:       1202  HIT:        601  MISS:        601  HIT %:         50  MISS %:         50   MPKI: 0.01202
LLC PREFETCH  REQUESTED:          0  ISSUED:          0  USEFUL:       6152  USELESS:      53373
LLC USEFUL LOAD PREFETCHES:       6152 PREFETCH ISSUED TO LOWER LEVEL:      60375  ACCURACY: 10.1896
LLC TIMELY PREFETCHES:       6152 LATE PREFETCHES: 0 DROPPED PREFETCHES: 0
LLC PREFETCHES SAME FILL-ORIGIN LEVEL: 0 DIFFERENT FILL-ORIGIN LEVEL: 0
LLC AVERAGE MISS LATENCY: 166.703 cycles
LLC RQ	ACCESS:     301887	FORWARD:          0	MERGED:          0	TO_CACHE:     301887
LLC WQ	ACCESS:     124976	FORWARD:          0	MERGED:          0	TO_CACHE:     124976
LLC PQ	ACCESS:     172758	FORWARD:          0	MERGED:          0	TO_CACHE:     172758

LLC Dense regions hint to LLC: 0

RAW hits: 1013122
Loads Generated: 11575568
Loads sent to L1D: 10562447
Stores Generated: 4525581
Stores sent to L1D: 4525584
Major fault: 0 Minor fault: 10830
Allocated PAGES: 10830
I-Shadow cache 408 bytes
Touched + WorthPF tables 6144 bytes 
MMA filter 174 bytes 
FNL filter 272 bytes 
TOTAL PREFETCHER STORAGE SIZE: 25174 bytes
CPU 0 L1I next line prefetcher final stats

stream: 
stream:times selected: 363745
stream:pref_filled: 24588
stream:pref_useful: 9695
stream:pref_late: 3784
stream:misses: 4678
stream:misses_by_poll: 0

CS: 
CS:times selected: 160849
CS:pref_filled: 21918
CS:pref_useful: 21168
CS:pref_late: 82526
CS:misses: 91074
CS:misses_by_poll: 57

CPLX: 
CPLX:times selected: 201724
CPLX:pref_filled: 27998
CPLX:pref_useful: 10988
CPLX:pref_late: 9920
CPLX:misses: 56204
CPLX:misses_by_poll: 81

NL_L1: 
NL:times selected: 987
NL:pref_filled: 200
NL:pref_useful: 110
NL:pref_late: 10
NL:misses: 223
NL:misses_by_poll: 0

total selections: 727305
total_filled: 69958
total_useful: 40615
total_late: 97198
total_polluted: 138
total_misses_after_warmup: 181796
conflicts: 224683
Degree Incremented Times: 3700
Degree Decremented Times: 3255

L1 IP Table Write Accesses: 883209
L1 IP Table Read Accesses: 658526
L1 RST Write Accesses: 362119
L1 RST Read Accesses: 724238
L1 CSPT Write Accesses: 362119
L1 CSPT Read Accesses: 834381
L1 RR Filter Tag Write Accesses: 347897
L1 RR Filter Tag Read Accesses: 30547488
L1 IP Table Tag Write Accesses: 1140281
L1 IP Table Tag Read Accesses: 1140281
L1 RST Tag Write Accesses: 0
L1 RST Tag Read Accesses: 3269023
L1 RR Filter Write Accesses: 0
L1 RR Filter Read Accesses: 1041856
test: 68703

DRAM Statistics
 CHANNEL 0
 RQ ROW_BUFFER_HIT:      61542  ROW_BUFFER_MISS:     220533
 DBUS_CONGESTED:        175
 WQ ROW_BUFFER_HIT:      25871  ROW_BUFFER_MISS:      88628  FULL:          0

 AVG_CONGESTED_CYCLE: 4
 All warmup complete: 2
Channel 0 Bank busy for read cycles: 0
Channel 0 Bank busy for write cycles: 0
Channel 0
Rank 0
0banks busy for read cycles: 42661952
0banks busy for write cycles: 38430
1banks busy for read cycles: 13871001
1banks busy for write cycles: 5660358
2banks busy for read cycles: 4406436
2banks busy for write cycles: 2115065
3banks busy for read cycles: 1751215
3banks busy for write cycles: 1038173
4banks busy for read cycles: 677731
4banks busy for write cycles: 549859
5banks busy for read cycles: 278937
5banks busy for write cycles: 289624
6banks busy for read cycles: 203608
6banks busy for write cycles: 209083
7banks busy for read cycles: 124756
7banks busy for write cycles: 213805
8banks busy for read cycles: 263260
8banks busy for write cycles: 703837

CPU 0 Branch Prediction Accuracy: 98.1683% MPKI: 3.13642 Average ROB Occupancy at Mispredict: 68.5695
Branch types
NOT_BRANCH: 41438057 82.8761%
BRANCH_DIRECT_JUMP: 413829 0.827658%
BRANCH_INDIRECT: 47058 0.094116%
BRANCH_CONDITIONAL: 6843835 13.6877%
BRANCH_DIRECT_CALL: 536885 1.07377%
BRANCH_INDIRECT_CALL: 90642 0.181284%
BRANCH_RETURN: 629329 1.25866%
BRANCH_OTHER: 0 0%

DRAM PAGES: 1048576
Allocated PAGES: 10830
