
*** ChampSim Multicore Out-of-Order Simulator ***

Warmup Instructions: 50000000
Simulation Instructions: 50000000
Number of CPUs: 1
LLC sets: 2048
LLC ways: 16
Off-chip DRAM Size: 4096 MB Channels: 1 Width: 64-bit Data Rate: 6400 MT/s
CPU 0 runs ../IPC-traces//client_007.champsimtrace.xz
.xz
NUM_OF_IPS_IN_CRITICAL_IP_TRAINING: 64
NUM_OF_CRITICAL_IP_TRAINING_TABLE_WAYS: 2
NUM_OF_CRITICAL_IP_TRAINING_TABLE_SETS: 32
WOBBLY_CRITICAL_IP_CACHE_SETS: 32
WOBBLY_CRITICAL_IP_CACHE_WAYS: 4
BTB has LRU replacement policy
ITLB has LRU replacement policy
DTLB has LRU replacement policy
STLB has LRU replacement policy
CPU 0 L1I next line prefetcher
L1I has LRU replacement policy
L1D has LRU replacement policy
Bingo PHT WAYS: 16 and PHT_SIZE: 16384
Initialize SRRIP state for L2C
Initialize DRRIP state for LLC
Heartbeat CPU 0 instructions: 10000003 cycles: 3033401 heartbeat IPC: 3.29663 cumulative IPC: 3.29663 (Simulation time: 0 hr 3 min 7 sec) 
Heartbeat CPU 0 instructions: 20000003 cycles: 5974005 heartbeat IPC: 3.40066 cumulative IPC: 3.34784 (Simulation time: 0 hr 5 min 30 sec) 
Heartbeat CPU 0 instructions: 30000000 cycles: 9155068 heartbeat IPC: 3.1436 cumulative IPC: 3.27687 (Simulation time: 0 hr 8 min 5 sec) 
Heartbeat CPU 0 instructions: 40000003 cycles: 12442173 heartbeat IPC: 3.04219 cumulative IPC: 3.21487 (Simulation time: 0 hr 10 min 18 sec) 
Heartbeat CPU 0 instructions: 50000001 cycles: 15342253 heartbeat IPC: 3.44818 cumulative IPC: 3.25897 (Simulation time: 0 hr 12 min 12 sec) 

Warmup complete CPU 0 instructions: 50000001 cycles: 15342253 (Simulation time: 0 hr 12 min 12 sec) 

% increase in all ip prefetch 263.149
% increase in all ip prefetch 0.946328
Heartbeat CPU 0 instructions: 60000003 cycles: 28326569 heartbeat IPC: 0.77016 cumulative IPC: 0.77016 (Simulation time: 0 hr 14 min 40 sec) 
Heartbeat CPU 0 instructions: 70000003 cycles: 44619100 heartbeat IPC: 0.613778 cumulative IPC: 0.683134 (Simulation time: 0 hr 17 min 21 sec) 
Heartbeat CPU 0 instructions: 80000001 cycles: 54830828 heartbeat IPC: 0.979266 cumulative IPC: 0.759713 (Simulation time: 0 hr 19 min 37 sec) 
Heartbeat CPU 0 instructions: 90000001 cycles: 68925862 heartbeat IPC: 0.70947 cumulative IPC: 0.746497 (Simulation time: 0 hr 22 min 2 sec) 
Heartbeat CPU 0 instructions: 100000000 cycles: 83838834 heartbeat IPC: 0.670557 cumulative IPC: 0.729963 (Simulation time: 0 hr 24 min 34 sec) 
Finished CPU 0 instructions: 50000001 cycles: 68496582 cumulative IPC: 0.729963 (Simulation time: 0 hr 24 min 34 sec) 

ChampSim completed all CPUs

Region of Interest Statistics

CPU 0 cumulative IPC: 0.729963 instructions: 50000001 cycles: 68496582

CPU 0 Average Load ROB stall cycles: 1.84242e+07
CPU 0 Fraction of times ROB stalled by Loads: 39.0214
CPU 0 Percentage of Load stall cycles in Total stall cycles: 2.47002e+08
Issued all: 30223331
Issued LT all: 24797662
rob_not_full_when_issued_lt_all: 18652061
Issued LT one: 19089734
rob_not_full_when_issued_lt_one: 14288342
 Total stall cycles: 55976461
 Total load stall cycles: 138262878999043
CPU 0 NUM of IPS identified critical: 0
CPU 0 Num of Load IPs stalling ROB: 12307
Threshold modification factor: -1
Max PIST entries: 64
Min PIST entries: 0
Avg PIST entries: 30.26
Trouble in retire width: 0.905321
MaC = Marked as critical.
lt_50_percent_before_Mac: 0
gt_90_percent_before_Mac: 0
gt_75_percent_before_Mac: 0
gt_50_percent_before_Mac: 0
stall_proportion_bin_same_before_after: 0
stall_proportion_bin_lower_before_after: 0
stall_proportion_bin_upper_before_after: 0
average_stall_proportion_before: -nan
average_stall_proportion_after: -nan
Critical IP stalls, total frequency: 0
Non-critical IP stalls, total frequency: 2928331
Total Freq all stalling IPs: 2928331
stat_90_percent_critical_ip_stalls_freq: 2635580
stat_90_percent_non_critical_ip_stalls_freq: 292751
Critical_IP_ROB_Stalls_Bucket_0: 0
Non-critical_IP_ROB_Stalls_Bucket_0: 1096903
Critical_IP_ROB_Stalls_Bucket_1: 0
Non-critical_IP_ROB_Stalls_Bucket_1: 820948
Critical_IP_ROB_Stalls_Bucket_2: 0
Non-critical_IP_ROB_Stalls_Bucket_2: 370442
Critical_IP_ROB_Stalls_Bucket_3: 0
Non-critical_IP_ROB_Stalls_Bucket_3: 189044
Critical_IP_ROB_Stalls_Bucket_4: 0
Non-critical_IP_ROB_Stalls_Bucket_4: 78853
Critical_IP_ROB_Stalls_Bucket_5: 0
Non-critical_IP_ROB_Stalls_Bucket_5: 45335
Critical_IP_ROB_Stalls_Bucket_6: 0
Non-critical_IP_ROB_Stalls_Bucket_6: 326806
0 => IPs accounting for >50 percent of stalls, 1 => 55, 2 => 60, 3 => 65 and so on till 90.
percent50: 50.0348 num IPs:  118
percent55: 55.0351 num IPs: 161
percent60: 60.0209 num IPs: 218
percent65: 65.0172 num IPs: 292
percent70: 70.0174 num IPs: 394
percent75: 75.0028 num IPs: 535
percent80: 80.0043 num IPs: 733
percent85: 85.0125 num IPs: 990
percent90: 90.0028 num IPs: 1391
Critical_ROB_Stalls_Percent_0_Bucket_0: 341125
Non-critical_ROB_Stalls_Percent_0_Bucket_0: 755778
Critical_ROB_Stalls_Percent_0_Bucket_1: 353009
Non-critical_ROB_Stalls_Percent_0_Bucket_1: 467939
Critical_ROB_Stalls_Percent_0_Bucket_2: 245770
Non-critical_ROB_Stalls_Percent_0_Bucket_2: 124672
Critical_ROB_Stalls_Percent_0_Bucket_3: 144933
Non-critical_ROB_Stalls_Percent_0_Bucket_3: 44111
Critical_ROB_Stalls_Percent_0_Bucket_4: 55948
Non-critical_ROB_Stalls_Percent_0_Bucket_4: 22905
Critical_ROB_Stalls_Percent_0_Bucket_5: 33148
Non-critical_ROB_Stalls_Percent_0_Bucket_5: 12187
Critical_ROB_Stalls_Percent_0_Bucket_6: 291251
Non-critical_ROB_Stalls_Percent_0_Bucket_6: 35555
Critical_ROB_Stalls_Percent_1_Bucket_0: 412683
Non-critical_ROB_Stalls_Percent_1_Bucket_0: 684220
Critical_ROB_Stalls_Percent_1_Bucket_1: 407494
Non-critical_ROB_Stalls_Percent_1_Bucket_1: 413454
Critical_ROB_Stalls_Percent_1_Bucket_2: 256113
Non-critical_ROB_Stalls_Percent_1_Bucket_2: 114329
Critical_ROB_Stalls_Percent_1_Bucket_3: 149147
Non-critical_ROB_Stalls_Percent_1_Bucket_3: 39897
Critical_ROB_Stalls_Percent_1_Bucket_4: 57970
Non-critical_ROB_Stalls_Percent_1_Bucket_4: 20883
Critical_ROB_Stalls_Percent_1_Bucket_5: 34666
Non-critical_ROB_Stalls_Percent_1_Bucket_5: 10669
Critical_ROB_Stalls_Percent_1_Bucket_6: 293538
Non-critical_ROB_Stalls_Percent_1_Bucket_6: 33268
Critical_ROB_Stalls_Percent_2_Bucket_0: 480370
Non-critical_ROB_Stalls_Percent_2_Bucket_0: 616533
Critical_ROB_Stalls_Percent_2_Bucket_1: 459610
Non-critical_ROB_Stalls_Percent_2_Bucket_1: 361338
Critical_ROB_Stalls_Percent_2_Bucket_2: 267849
Non-critical_ROB_Stalls_Percent_2_Bucket_2: 102593
Critical_ROB_Stalls_Percent_2_Bucket_3: 154585
Non-critical_ROB_Stalls_Percent_2_Bucket_3: 34459
Critical_ROB_Stalls_Percent_2_Bucket_4: 60370
Non-critical_ROB_Stalls_Percent_2_Bucket_4: 18483
Critical_ROB_Stalls_Percent_2_Bucket_5: 35681
Non-critical_ROB_Stalls_Percent_2_Bucket_5: 9654
Critical_ROB_Stalls_Percent_2_Bucket_6: 299146
Non-critical_ROB_Stalls_Percent_2_Bucket_6: 27660
Critical_ROB_Stalls_Percent_3_Bucket_0: 543596
Non-critical_ROB_Stalls_Percent_3_Bucket_0: 553307
Critical_ROB_Stalls_Percent_3_Bucket_1: 514628
Non-critical_ROB_Stalls_Percent_3_Bucket_1: 306320
Critical_ROB_Stalls_Percent_3_Bucket_2: 285522
Non-critical_ROB_Stalls_Percent_3_Bucket_2: 84920
Critical_ROB_Stalls_Percent_3_Bucket_3: 159346
Non-critical_ROB_Stalls_Percent_3_Bucket_3: 29698
Critical_ROB_Stalls_Percent_3_Bucket_4: 63191
Non-critical_ROB_Stalls_Percent_3_Bucket_4: 15662
Critical_ROB_Stalls_Percent_3_Bucket_5: 36881
Non-critical_ROB_Stalls_Percent_3_Bucket_5: 8454
Critical_ROB_Stalls_Percent_3_Bucket_6: 300755
Non-critical_ROB_Stalls_Percent_3_Bucket_6: 26051
Critical_ROB_Stalls_Percent_4_Bucket_0: 609765
Non-critical_ROB_Stalls_Percent_4_Bucket_0: 487138
Critical_ROB_Stalls_Percent_4_Bucket_1: 562943
Non-critical_ROB_Stalls_Percent_4_Bucket_1: 258005
Critical_ROB_Stalls_Percent_4_Bucket_2: 298936
Non-critical_ROB_Stalls_Percent_4_Bucket_2: 71506
Critical_ROB_Stalls_Percent_4_Bucket_3: 165009
Non-critical_ROB_Stalls_Percent_4_Bucket_3: 24035
Critical_ROB_Stalls_Percent_4_Bucket_4: 67158
Non-critical_ROB_Stalls_Percent_4_Bucket_4: 11695
Critical_ROB_Stalls_Percent_4_Bucket_5: 39091
Non-critical_ROB_Stalls_Percent_4_Bucket_5: 6244
Critical_ROB_Stalls_Percent_4_Bucket_6: 307440
Non-critical_ROB_Stalls_Percent_4_Bucket_6: 19366
Critical_ROB_Stalls_Percent_5_Bucket_0: 685930
Non-critical_ROB_Stalls_Percent_5_Bucket_0: 410973
Critical_ROB_Stalls_Percent_5_Bucket_1: 609862
Non-critical_ROB_Stalls_Percent_5_Bucket_1: 211086
Critical_ROB_Stalls_Percent_5_Bucket_2: 311487
Non-critical_ROB_Stalls_Percent_5_Bucket_2: 58955
Critical_ROB_Stalls_Percent_5_Bucket_3: 168706
Non-critical_ROB_Stalls_Percent_5_Bucket_3: 20338
Critical_ROB_Stalls_Percent_5_Bucket_4: 69958
Non-critical_ROB_Stalls_Percent_5_Bucket_4: 8895
Critical_ROB_Stalls_Percent_5_Bucket_5: 40304
Non-critical_ROB_Stalls_Percent_5_Bucket_5: 5031
Critical_ROB_Stalls_Percent_5_Bucket_6: 310084
Non-critical_ROB_Stalls_Percent_5_Bucket_6: 16722
Critical_ROB_Stalls_Percent_6_Bucket_0: 758544
Non-critical_ROB_Stalls_Percent_6_Bucket_0: 338359
Critical_ROB_Stalls_Percent_6_Bucket_1: 663304
Non-critical_ROB_Stalls_Percent_6_Bucket_1: 157644
Critical_ROB_Stalls_Percent_6_Bucket_2: 323067
Non-critical_ROB_Stalls_Percent_6_Bucket_2: 47375
Critical_ROB_Stalls_Percent_6_Bucket_3: 172310
Non-critical_ROB_Stalls_Percent_6_Bucket_3: 16734
Critical_ROB_Stalls_Percent_6_Bucket_4: 71347
Non-critical_ROB_Stalls_Percent_6_Bucket_4: 7506
Critical_ROB_Stalls_Percent_6_Bucket_5: 41195
Non-critical_ROB_Stalls_Percent_6_Bucket_5: 4140
Critical_ROB_Stalls_Percent_6_Bucket_6: 313026
Non-critical_ROB_Stalls_Percent_6_Bucket_6: 13780
Critical_ROB_Stalls_Percent_7_Bucket_0: 847145
Non-critical_ROB_Stalls_Percent_7_Bucket_0: 249758
Critical_ROB_Stalls_Percent_7_Bucket_1: 699564
Non-critical_ROB_Stalls_Percent_7_Bucket_1: 121384
Critical_ROB_Stalls_Percent_7_Bucket_2: 333115
Non-critical_ROB_Stalls_Percent_7_Bucket_2: 37327
Critical_ROB_Stalls_Percent_7_Bucket_3: 176283
Non-critical_ROB_Stalls_Percent_7_Bucket_3: 12761
Critical_ROB_Stalls_Percent_7_Bucket_4: 73512
Non-critical_ROB_Stalls_Percent_7_Bucket_4: 5341
Critical_ROB_Stalls_Percent_7_Bucket_5: 42209
Non-critical_ROB_Stalls_Percent_7_Bucket_5: 3126
Critical_ROB_Stalls_Percent_7_Bucket_6: 317618
Non-critical_ROB_Stalls_Percent_7_Bucket_6: 9188
Critical_ROB_Stalls_Percent_8_Bucket_0: 926889
Non-critical_ROB_Stalls_Percent_8_Bucket_0: 170014
Critical_ROB_Stalls_Percent_8_Bucket_1: 740889
Non-critical_ROB_Stalls_Percent_8_Bucket_1: 80059
Critical_ROB_Stalls_Percent_8_Bucket_2: 347384
Non-critical_ROB_Stalls_Percent_8_Bucket_2: 23058
Critical_ROB_Stalls_Percent_8_Bucket_3: 181275
Non-critical_ROB_Stalls_Percent_8_Bucket_3: 7769
Critical_ROB_Stalls_Percent_8_Bucket_4: 75594
Non-critical_ROB_Stalls_Percent_8_Bucket_4: 3259
Critical_ROB_Stalls_Percent_8_Bucket_5: 43358
Non-critical_ROB_Stalls_Percent_8_Bucket_5: 1977
Critical_ROB_Stalls_Percent_8_Bucket_6: 320191
Non-critical_ROB_Stalls_Percent_8_Bucket_6: 6615
Average ROB occupancy Load Stall Begin: 97.4329
Average ROB occupancy Load Stall End: 106.381
Min ROB occupancy Load Stall Begin: 1
Max ROB occupancy Load Stall Begin: 352
Min ROB occupancy Load Stall End: 1
Max ROB occupancy Load Stall End: 352
Average ROB occupancy Critical Load Stall Begin: -nan
Average ROB occupancy Critical Load Stall End: -nan
Min ROB occupancy Critical Load Stall Begin: 400
Max ROB occupancy Critical Load Stall Begin: 0
Min ROB occupancy Critical Load Stall End: 400
Max ROB occupancy Critical Load Stall End: 0
 ROB Load Stall Begin Bucket Count 0: 1367515
 ROB Load Stall End Bucket Count 0: 1096903
 ROB Critical Load Stall Begin Bucket Count 0: 0
 ROB Critical Load Stall End Bucket Count 0: 0
 ROB Load Stall Begin Bucket Count 1: 655910
 ROB Load Stall End Bucket Count 1: 820948
 ROB Critical Load Stall Begin Bucket Count 1: 0
 ROB Critical Load Stall End Bucket Count 1: 0
 ROB Load Stall Begin Bucket Count 2: 320743
 ROB Load Stall End Bucket Count 2: 370442
 ROB Critical Load Stall Begin Bucket Count 2: 0
 ROB Critical Load Stall End Bucket Count 2: 0
 ROB Load Stall Begin Bucket Count 3: 158063
 ROB Load Stall End Bucket Count 3: 189044
 ROB Critical Load Stall Begin Bucket Count 3: 0
 ROB Critical Load Stall End Bucket Count 3: 0
 ROB Load Stall Begin Bucket Count 4: 67550
 ROB Load Stall End Bucket Count 4: 78853
 ROB Critical Load Stall Begin Bucket Count 4: 0
 ROB Critical Load Stall End Bucket Count 4: 0
 ROB Load Stall Begin Bucket Count 5: 39630
 ROB Load Stall End Bucket Count 5: 45335
 ROB Critical Load Stall Begin Bucket Count 5: 0
 ROB Critical Load Stall End Bucket Count 5: 0
 ROB Load Stall Begin Bucket Count 6: 318920
 ROB Load Stall End Bucket Count 6: 326806
 ROB Critical Load Stall Begin Bucket Count 6: 0
 ROB Critical Load Stall End Bucket Count 6: 0
PIST Tag Read Accesses: 2171128
PIST Read Accesses: 1085564
PIST Tag Write Accesses: 2171128
PIST Write Accesses: 1085564
Criticality detector called times: 1895939
Max global_stall_cycles_count: 3863521
Threshold Modified: 1 times, factor: -1
Sturdy critical IP cache stats: 
 Unused entries: 0
CIC Tag Read Accesses: 0
CIC Read Accesses: 0
CIC Tag Write Accesses: 0
CIC Write Accesses: 0
Wobbly critical IP cache stats: 
 Unused entries: 13
CIC Tag Read Accesses: 89528202
CIC Read Accesses: 0
CIC Tag Write Accesses: 312367
CIC Write Accesses: 0
ITLB TOTAL     ACCESS:    8762904  HIT:    8584520  MISS:     178384  HIT %:    97.9643  MISS %:    2.03567   MPKI: 3.56768
ITLB LOAD TRANSLATION ACCESS:    8147024  HIT:    8134485  MISS:      12539  HIT %:    99.8461  MISS %:   0.153909   MPKI: 0.25078
ITLB TRANSLATION FROM L1D PREFETCHER ACCESS:     615880  HIT:     450035  MISS:     165845  HIT %:    73.0719  MISS %:    26.9281   MPKI: 3.3169
ITLB PREFETCH  REQUESTED:          0  ISSUED:          0  USEFUL:     141726  USELESS:      24119
ITLB USEFUL LOAD PREFETCHES:     141726 PREFETCH ISSUED TO LOWER LEVEL:          0  ACCURACY: inf
ITLB TIMELY PREFETCHES:     141726 LATE PREFETCHES: 55 DROPPED PREFETCHES: 17
ITLB PREFETCHES SAME FILL-ORIGIN LEVEL: 0 DIFFERENT FILL-ORIGIN LEVEL: 0
ITLB AVERAGE MISS LATENCY: 12510.4 cycles
ITLB RQ	ACCESS:   11219167	FORWARD:          0	MERGED:    2442674	TO_CACHE:    8776493

DTLB TOTAL     ACCESS:   11646783  HIT:   11329884  MISS:     316899  HIT %:    97.2791  MISS %:    2.72091   MPKI: 6.33798
DTLB LOAD TRANSLATION ACCESS:   11646783  HIT:   11329884  MISS:     316899  HIT %:    97.2791  MISS %:    2.72091   MPKI: 6.33798
DTLB PREFETCH  REQUESTED:          0  ISSUED:          0  USEFUL:          0  USELESS:          0
DTLB USEFUL LOAD PREFETCHES:          0 PREFETCH ISSUED TO LOWER LEVEL:          0  ACCURACY: -nan
DTLB TIMELY PREFETCHES:          0 LATE PREFETCHES: 0 DROPPED PREFETCHES: 0
DTLB PREFETCHES SAME FILL-ORIGIN LEVEL: 0 DIFFERENT FILL-ORIGIN LEVEL: 0
DTLB AVERAGE MISS LATENCY: 10.407 cycles
DTLB RQ	ACCESS:   13912159	FORWARD:          0	MERGED:    2248957	TO_CACHE:   11663202

STLB TOTAL     ACCESS:     495283  HIT:     491078  MISS:       4205  HIT %:     99.151  MISS %:    0.84901   MPKI: 0.0841
STLB LOAD TRANSLATION ACCESS:     329383  HIT:     325480  MISS:       3903  HIT %:    98.8151  MISS %:    1.18494   MPKI: 0.07806
STLB TRANSLATION FROM L1D PREFETCHER ACCESS:     165900  HIT:     165598  MISS:        302  HIT %:     99.818  MISS %:   0.182037   MPKI: 0.00604
STLB PREFETCH  REQUESTED:          0  ISSUED:          0  USEFUL:        244  USELESS:         45
STLB USEFUL LOAD PREFETCHES:        244 PREFETCH ISSUED TO LOWER LEVEL:          0  ACCURACY: inf
STLB TIMELY PREFETCHES:        244 LATE PREFETCHES: 0 DROPPED PREFETCHES: 17
STLB PREFETCHES SAME FILL-ORIGIN LEVEL: 0 DIFFERENT FILL-ORIGIN LEVEL: 0
STLB AVERAGE MISS LATENCY: 130.333 cycles
STLB RQ	ACCESS:     495300	FORWARD:          0	MERGED:          0	TO_CACHE:     495300

STLB Hit, L1D data hit: 0
STLB Hit, L2C data hit: 0
STLB Hit, LLC data hit: 0
STLB Hit, LLC data miss: 0
STLB STLB hints to L2: 0
L1D TOTAL     ACCESS:   13748277  HIT:   13182160  MISS:     566117  HIT %:    95.8823  MISS %:    4.11773   MPKI: 11.3223
L1D LOAD      ACCESS:    8828119  HIT:    8338099  MISS:     490020  HIT %:    94.4493  MISS %:    5.55067   MPKI: 9.8004
L1D RFO       ACCESS:    4920158  HIT:    4844061  MISS:      76097  HIT %:    98.4534  MISS %:    1.54664   MPKI: 1.52194
L1D PREFETCH  REQUESTED:          0  ISSUED:          0  USEFUL:          0  USELESS:          0
L1D USEFUL LOAD PREFETCHES:          0 PREFETCH ISSUED TO LOWER LEVEL:          0  ACCURACY: -nan
L1D TIMELY PREFETCHES:          0 LATE PREFETCHES: 0 DROPPED PREFETCHES: 0
L1D PREFETCHES SAME FILL-ORIGIN LEVEL: 0 DIFFERENT FILL-ORIGIN LEVEL: 0
L1D AVERAGE MISS LATENCY: 45.5145 cycles
L1D RQ	ACCESS:   12818667	FORWARD:          0	MERGED:    3859323	TO_CACHE:    8873037
L1D WQ	ACCESS:    5437654	FORWARD:      86307	MERGED:     398532	TO_CACHE:    5039122

L1D UNIQUE REGIONS ACCESSED: 0
L1D REGIONS CONFLICTS: 0
L1D Cross Page Prefetch Requests: 0
L1D Same Page Prefetch Requests: 0
L1D ROI Sum of L1D PQ occupancy: 0
L1D PREFETCHES PUSHED FROM L2C: 0
L1I TOTAL     ACCESS:   11189876  HIT:   10020914  MISS:    1168962  HIT %:    89.5534  MISS %:    10.4466   MPKI: 23.3792
L1I LOAD      ACCESS:    9637825  HIT:    9592842  MISS:      44983  HIT %:    99.5333  MISS %:   0.466734   MPKI: 0.89966
L1I PREFETCH  ACCESS:    1552051  HIT:     428072  MISS:    1123979  HIT %:    27.5811  MISS %:    72.4189   MPKI: 22.4796
L1I PREFETCH  REQUESTED:    1601687  ISSUED:    1601211  USEFUL:     845895  USELESS:     278130
L1I USEFUL LOAD PREFETCHES:     845895 PREFETCH ISSUED TO LOWER LEVEL:    1135394  ACCURACY: 74.5023
L1I TIMELY PREFETCHES:     845895 LATE PREFETCHES: 6754 DROPPED PREFETCHES: 22
L1I PREFETCHES SAME FILL-ORIGIN LEVEL: 1135394 DIFFERENT FILL-ORIGIN LEVEL: 0
L1I AVERAGE MISS LATENCY: 246036 cycles
L1I RQ	ACCESS:   14353593	FORWARD:          0	MERGED:    4708268	TO_CACHE:    9645325
L1I PQ	ACCESS:    1601211	FORWARD:          0	MERGED:      27369	TO_CACHE:    1573842

BTB TOTAL     ACCESS:    6145704  HIT:    5759281  MISS:     386423  HIT %:    93.7123  MISS %:    6.28769   MPKI: 7.72846
BTB BRANCH_DIRECT_JUMP	ACCESS:     735331  HIT:     732025  MISS:       3306
BTB BRANCH_INDIRECT	ACCESS:     269194  HIT:     145703  MISS:     123491
BTB BRANCH_CONDITIONAL	ACCESS:    3930750  HIT:    3920624  MISS:      10126
BTB BRANCH_DIRECT_CALL	ACCESS:     368758  HIT:     363374  MISS:       5384
BTB BRANCH_INDIRECT_CALL	ACCESS:     226975  HIT:     162973  MISS:      64002
BTB BRANCH_RETURN	ACCESS:     614696  HIT:     434582  MISS:     180114
BTB BRANCH_OTHER ACCESS:          0  HIT:          0  MISS:          0

L2C TOTAL     ACCESS:    2273894  HIT:    2047177  MISS:     226717  HIT %:    90.0296  MISS %:    9.97043   MPKI: 4.53434
L2C LOAD      ACCESS:     528123  HIT:     455149  MISS:      72974  HIT %:    86.1824  MISS %:    13.8176   MPKI: 1.45948
L2C DATA LOAD MPKI: 1.37274
L2C INSTRUCTION LOAD MPKI: 0.08674
L2C RFO       ACCESS:      76088  HIT:      30136  MISS:      45952  HIT %:    39.6068  MISS %:    60.3932   MPKI: 0.91904
L2C PREFETCH  ACCESS:    1433120  HIT:    1329572  MISS:     103548  HIT %:    92.7746  MISS %:    7.22535   MPKI: 2.07096
L2C DATA PREFETCH MPKI: 1.89436
L2C INSTRUCTION PREFETCH MPKI: 0.1766
L2C WRITEBACK ACCESS:     232147  HIT:     229751  MISS:       2396  HIT %:    98.9679  MISS %:     1.0321   MPKI: 0.04792
L2C LOAD TRANSLATION ACCESS:       4075  HIT:       2429  MISS:       1646  HIT %:    59.6074  MISS %:    40.3926   MPKI: 0.03292
L2C TRANSLATION FROM L1D PREFETCHER ACCESS:        341  HIT:        140  MISS:        201  HIT %:    41.0557  MISS %:    58.9443   MPKI: 0.00402
L2C PREFETCH  REQUESTED:     304727  ISSUED:     304727  USEFUL:      52298  USELESS:      52295
L2C USEFUL LOAD PREFETCHES:      52298 PREFETCH ISSUED TO LOWER LEVEL:     104405  ACCURACY: 50.0915
L2C TIMELY PREFETCHES:      52298 LATE PREFETCHES: 857 DROPPED PREFETCHES: 0
L2C PREFETCHES SAME FILL-ORIGIN LEVEL: 95575 DIFFERENT FILL-ORIGIN LEVEL: 0
L2C AVERAGE MISS LATENCY: 147.793 cycles
L2C RQ	ACCESS:     608762	FORWARD:          0	MERGED:          0	TO_CACHE:     608627
L2C WQ	ACCESS:     232147	FORWARD:        135	MERGED:          0	TO_CACHE:     232147
L2C PQ	ACCESS:    1435460	FORWARD:          0	MERGED:          0	TO_CACHE:    1435460

L2C Instructions Evicting Data 9866
L2C Translations Evicting Data 1495
L2C Data Evicting Data 195115
L2C Instructions Evicting Instructions 3023
L2C Translations Evicting Instructions 314
L2C Data Evicting Instructions 12508
L2C Instructions Evicting Translations 278
L2C Translations Evicting Translations 38
L2C Data Evicting Translations 1684
L2C Dense regions hint from L2: 0
PSCL5 TOTAL     ACCESS:       4222  HIT:       4222  MISS:          0  HIT %:        100  MISS %:          0   MPKI: 0
PSCL5 LOAD TRANSLATION ACCESS:       3903  HIT:       3903  MISS:          0  HIT %:        100  MISS %:          0   MPKI: 0
PSCL5 TRANSLATION FROM L1D PREFETCHER ACCESS:        319  HIT:        319  MISS:          0  HIT %:        100  MISS %:          0   MPKI: 0
PSCL5 PREFETCH  REQUESTED:          0  ISSUED:          0  USEFUL:          0  USELESS:          0
PSCL5 USEFUL LOAD PREFETCHES:          0 PREFETCH ISSUED TO LOWER LEVEL:          0  ACCURACY: -nan
PSCL5 TIMELY PREFETCHES:          0 LATE PREFETCHES: 0 DROPPED PREFETCHES: 0
PSCL5 PREFETCHES SAME FILL-ORIGIN LEVEL: 0 DIFFERENT FILL-ORIGIN LEVEL: 0

PSCL4 TOTAL     ACCESS:       3928  HIT:       3921  MISS:          7  HIT %:    99.8218  MISS %:   0.178208   MPKI: 0.00014
PSCL4 LOAD TRANSLATION ACCESS:       3640  HIT:       3633  MISS:          7  HIT %:    99.8077  MISS %:   0.192308   MPKI: 0.00014
PSCL4 TRANSLATION FROM L1D PREFETCHER ACCESS:        288  HIT:        288  MISS:          0  HIT %:        100  MISS %:          0   MPKI: 0
PSCL4 PREFETCH  REQUESTED:          0  ISSUED:          0  USEFUL:          0  USELESS:          0
PSCL4 USEFUL LOAD PREFETCHES:          0 PREFETCH ISSUED TO LOWER LEVEL:          0  ACCURACY: -nan
PSCL4 TIMELY PREFETCHES:          0 LATE PREFETCHES: 0 DROPPED PREFETCHES: 0
PSCL4 PREFETCHES SAME FILL-ORIGIN LEVEL: 0 DIFFERENT FILL-ORIGIN LEVEL: 0

PSCL3 TOTAL     ACCESS:       4165  HIT:       4148  MISS:         17  HIT %:    99.5918  MISS %:   0.408163   MPKI: 0.00034
PSCL3 LOAD TRANSLATION ACCESS:       3857  HIT:       3840  MISS:         17  HIT %:    99.5592  MISS %:   0.440757   MPKI: 0.00034
PSCL3 TRANSLATION FROM L1D PREFETCHER ACCESS:        308  HIT:        308  MISS:          0  HIT %:        100  MISS %:          0   MPKI: 0
PSCL3 PREFETCH  REQUESTED:          0  ISSUED:          0  USEFUL:          0  USELESS:          0
PSCL3 USEFUL LOAD PREFETCHES:          0 PREFETCH ISSUED TO LOWER LEVEL:          0  ACCURACY: -nan
PSCL3 TIMELY PREFETCHES:          0 LATE PREFETCHES: 0 DROPPED PREFETCHES: 0
PSCL3 PREFETCHES SAME FILL-ORIGIN LEVEL: 0 DIFFERENT FILL-ORIGIN LEVEL: 0

PSCL2 TOTAL     ACCESS:       4222  HIT:       4047  MISS:        175  HIT %:     95.855  MISS %:    4.14495   MPKI: 0.0035
PSCL2 LOAD TRANSLATION ACCESS:       3923  HIT:       3748  MISS:        175  HIT %:    95.5391  MISS %:    4.46087   MPKI: 0.0035
PSCL2 TRANSLATION FROM L1D PREFETCHER ACCESS:        299  HIT:        299  MISS:          0  HIT %:        100  MISS %:          0   MPKI: 0
PSCL2 PREFETCH  REQUESTED:          0  ISSUED:          0  USEFUL:          0  USELESS:          0
PSCL2 USEFUL LOAD PREFETCHES:          0 PREFETCH ISSUED TO LOWER LEVEL:          0  ACCURACY: -nan
PSCL2 TIMELY PREFETCHES:          0 LATE PREFETCHES: 0 DROPPED PREFETCHES: 0
PSCL2 PREFETCHES SAME FILL-ORIGIN LEVEL: 0 DIFFERENT FILL-ORIGIN LEVEL: 0

LLC TOTAL     ACCESS:     297230  HIT:     142881  MISS:     154349  HIT %:    48.0709  MISS %:    51.9291   MPKI: 3.08698
LLC LOAD      ACCESS:      72131  HIT:      30212  MISS:      41919  HIT %:    41.8849  MISS %:    58.1151   MPKI: 0.83838
LLC RFO       ACCESS:      45938  HIT:       4873  MISS:      41065  HIT %:    10.6078  MISS %:    89.3922   MPKI: 0.8213
LLC PREFETCH  ACCESS:     104405  HIT:      36710  MISS:      67695  HIT %:    35.1612  MISS %:    64.8388   MPKI: 1.3539
LLC WRITEBACK ACCESS:      72909  HIT:      70397  MISS:       2512  HIT %:    96.5546  MISS %:    3.44539   MPKI: 0.05024
LLC LOAD TRANSLATION ACCESS:       1646  HIT:        602  MISS:       1044  HIT %:    36.5735  MISS %:    63.4265   MPKI: 0.02088
LLC TRANSLATION FROM L1D PREFETCHER ACCESS:        201  HIT:         87  MISS:        114  HIT %:    43.2836  MISS %:    56.7164   MPKI: 0.00228
LLC PREFETCH  REQUESTED:          0  ISSUED:          0  USEFUL:       8808  USELESS:      58582
LLC USEFUL LOAD PREFETCHES:       8808 PREFETCH ISSUED TO LOWER LEVEL:      67695  ACCURACY: 13.0113
LLC TIMELY PREFETCHES:       8808 LATE PREFETCHES: 0 DROPPED PREFETCHES: 0
LLC PREFETCHES SAME FILL-ORIGIN LEVEL: 0 DIFFERENT FILL-ORIGIN LEVEL: 0
LLC AVERAGE MISS LATENCY: 173.177 cycles
LLC RQ	ACCESS:     119916	FORWARD:          0	MERGED:          0	TO_CACHE:     119916
LLC WQ	ACCESS:      72909	FORWARD:          0	MERGED:          0	TO_CACHE:      72909
LLC PQ	ACCESS:     104405	FORWARD:          0	MERGED:          0	TO_CACHE:     104405

LLC Dense regions hint to LLC: 0

RAW hits: 1061268
Loads Generated: 13879936
Loads sent to L1D: 12818667
Stores Generated: 5437650
Stores sent to L1D: 5437654
Major fault: 0 Minor fault: 4494
Allocated PAGES: 4494
I-Shadow cache 408 bytes
Touched + WorthPF tables 6144 bytes 
MMA filter 174 bytes 
FNL filter 272 bytes 
TOTAL PREFETCHER STORAGE SIZE: 25174 bytes
CPU 0 L1I next line prefetcher final stats
[Bingo] PHT Access: 85763
[Bingo] PHT Hit PC+Addr: 52483
[Bingo] PHT Hit PC+Offs: 12030
[Bingo] PHT Miss: 21250
[Bingo] Prefetch PC+Addr: 0
[Bingo] Prefetch PC+Offs: 0
[Bingo] Useful PC+Addr: 0
[Bingo] Useful PC+Offs: 0
[Bingo] Useless PC+Addr: 0
[Bingo] Useless PC+Offs: 0
[Bingo] L1 Prefetch per Region: 0
[Bingo] L2 Prefetch per Region: 5.82715
[Bingo] L3 Prefetch per Region: 0
[Bingo] No Prefetch per Region: 26.1728
[Bingo] Number of Voters Mean: 4.05046
[Bingo] Number of Voters SD: 6.61945
PHT read accesses: 892571
PHT write accesses: 55018
AT read accesses: 401825
AT write accesses: 452375
FT read accesses: 205098
FT write accesses: 85763
PS read accesses: 134401
PS write accesses: 64513
PHT tag read accesses: 1922081
PHT tag write accesses: 107501
AT tag read accesses: 14260119
AT tag write accesses: 461556
FT tag read accesses: 9341322
FT tag write accesses: 219643
PS tag read accesses: 10169223
PS tag write accesses: 198410

DRAM Statistics
 CHANNEL 0
 RQ ROW_BUFFER_HIT:      50113  ROW_BUFFER_MISS:     101721
 DBUS_CONGESTED:         60
 WQ ROW_BUFFER_HIT:       9341  ROW_BUFFER_MISS:      53066  FULL:          0

 AVG_CONGESTED_CYCLE: 4
 All warmup complete: 2
Channel 0 Bank busy for read cycles: 0
Channel 0 Bank busy for write cycles: 0
Channel 0
Rank 0
0banks busy for read cycles: 55877709
0banks busy for write cycles: 16239
1banks busy for read cycles: 4797435
1banks busy for write cycles: 2156640
2banks busy for read cycles: 1353690
2banks busy for write cycles: 669113
3banks busy for read cycles: 653741
3banks busy for write cycles: 360545
4banks busy for read cycles: 303990
4banks busy for write cycles: 259669
5banks busy for read cycles: 239953
5banks busy for write cycles: 192907
6banks busy for read cycles: 183815
6banks busy for write cycles: 164538
7banks busy for read cycles: 208625
7banks busy for write cycles: 184644
8banks busy for read cycles: 418760
8banks busy for write cycles: 454570

CPU 0 Branch Prediction Accuracy: 98.8607% MPKI: 1.8623 Average ROB Occupancy at Mispredict: 71.5516
Branch types
NOT_BRANCH: 41826774 83.6535%
BRANCH_DIRECT_JUMP: 735331 1.47066%
BRANCH_INDIRECT: 269194 0.538388%
BRANCH_CONDITIONAL: 5957947 11.9159%
BRANCH_DIRECT_CALL: 368758 0.737516%
BRANCH_INDIRECT_CALL: 226975 0.45395%
BRANCH_RETURN: 614696 1.22939%
BRANCH_OTHER: 0 0%

DRAM PAGES: 1048576
Allocated PAGES: 4494
