
*** ChampSim Multicore Out-of-Order Simulator ***

Warmup Instructions: 50000000
Simulation Instructions: 50000000
Number of CPUs: 1
LLC sets: 2048
LLC ways: 16
Off-chip DRAM Size: 4096 MB Channels: 1 Width: 64-bit Data Rate: 6400 MT/s
CPU 0 runs ../IPC-traces//client_007.champsimtrace.xz
.xz
BTB has LRU replacement policy
ITLB has LRU replacement policy
DTLB has LRU replacement policy
STLB has LRU replacement policy
CPU 0 L1I next line prefetcher
L1I has LRU replacement policy
L1D has LRU replacement policy
Bingo PHT WAYS: 16 and PHT_SIZE: 16384
Initialize SRRIP state for L2C
Initialize DRRIP state for LLC
Heartbeat CPU 0 instructions: 10000003 cycles: 3033676 heartbeat IPC: 3.29633 cumulative IPC: 3.29633 (Simulation time: 0 hr 3 min 30 sec) 
Heartbeat CPU 0 instructions: 20000003 cycles: 5974749 heartbeat IPC: 3.40012 cumulative IPC: 3.34742 (Simulation time: 0 hr 6 min 12 sec) 
Heartbeat CPU 0 instructions: 30000000 cycles: 9155825 heartbeat IPC: 3.14359 cumulative IPC: 3.2766 (Simulation time: 0 hr 9 min 29 sec) 
Heartbeat CPU 0 instructions: 40000003 cycles: 12443020 heartbeat IPC: 3.04211 cumulative IPC: 3.21465 (Simulation time: 0 hr 12 min 40 sec) 
Heartbeat CPU 0 instructions: 50000001 cycles: 15343628 heartbeat IPC: 3.44755 cumulative IPC: 3.25868 (Simulation time: 0 hr 15 min 27 sec) 

Warmup complete CPU 0 instructions: 50000001 cycles: 15343628 (Simulation time: 0 hr 15 min 27 sec) 

Heartbeat CPU 0 instructions: 60000003 cycles: 28485353 heartbeat IPC: 0.760935 cumulative IPC: 0.760935 (Simulation time: 0 hr 18 min 52 sec) 
Heartbeat CPU 0 instructions: 70000003 cycles: 45695582 heartbeat IPC: 0.58105 cumulative IPC: 0.658936 (Simulation time: 0 hr 22 min 46 sec) 
Heartbeat CPU 0 instructions: 80000001 cycles: 56047882 heartbeat IPC: 0.965969 cumulative IPC: 0.737024 (Simulation time: 0 hr 26 min 8 sec) 
Heartbeat CPU 0 instructions: 90000001 cycles: 70500827 heartbeat IPC: 0.6919 cumulative IPC: 0.7252 (Simulation time: 0 hr 29 min 34 sec) 
Heartbeat CPU 0 instructions: 100000000 cycles: 87272280 heartbeat IPC: 0.596251 cumulative IPC: 0.695133 (Simulation time: 0 hr 32 min 38 sec) 
Finished CPU 0 instructions: 50000001 cycles: 71928653 cumulative IPC: 0.695133 (Simulation time: 0 hr 32 min 38 sec) 

ChampSim completed all CPUs

Region of Interest Statistics

CPU 0 cumulative IPC: 0.695133 instructions: 50000001 cycles: 71928653

CPU 0 Average Load ROB stall cycles: 1.88052e+07
CPU 0 Fraction of times ROB stalled by Loads: 39.0096
CPU 0 Percentage of Load stall cycles in Total stall cycles: 2.34387e+08
Issued all: 30942336
Issued LT all: 25522659
rob_not_full_when_issued_lt_all: 18631337
Issued LT one: 19802311
rob_not_full_when_issued_lt_one: 14274406
 Total stall cycles: 59436141
 Total load stall cycles: 139310387099764
Unique Load IPs: 16511
CPU 0 NUM of IPS identified critical: 7
CPU 0 Num of Load IPs stalling ROB: 0
Threshold modification factor: 0
Trouble in retire width: -nan
MaC = Marked as critical.
lt_50_percent_before_Mac: 4
gt_90_percent_before_Mac: 0
gt_75_percent_before_Mac: 2
gt_50_percent_before_Mac: 1
stall_proportion_bin_same_before_after: 0
stall_proportion_bin_lower_before_after: 0
stall_proportion_bin_upper_before_after: 0
average_stall_proportion_before: 0.0152522
average_stall_proportion_after: 0.0170332
Critical_IP_Detector_Accuracy_70: 0
Critical_IP_Detector_Accuracy_80: 0
Critical_IP_Detector_Accuracy_90: 0
Critical_IP_Detector_Coverage_70: 0
Critical_IP_Detector_Coverage_80: 0
Critical_IP_Detector_Coverage_90: 0
stat_90_percent_critical_ip_stalls_freq: 146492
stat_90_percent_non_critical_ip_stalls_freq: 18446744073709405124
AVERAGE_ROB_Occupancy_90_Percent_Critical_IP_Stalls: 292.727
AVERAGE_ROB_Occupancy_90_Percent_Non_Critical_IP_Stalls: 1.48451e-11
Critical_IP_ROB_Stalls_Bucket_0: 168
Non-critical_IP_ROB_Stalls_Bucket_0: 1046615
Critical_IP_ROB_Stalls_Bucket_1: 46
Non-critical_IP_ROB_Stalls_Bucket_1: 792136
Critical_IP_ROB_Stalls_Bucket_2: 41
Non-critical_IP_ROB_Stalls_Bucket_2: 386334
Critical_IP_ROB_Stalls_Bucket_3: 42
Non-critical_IP_ROB_Stalls_Bucket_3: 195613
Critical_IP_ROB_Stalls_Bucket_4: 35
Non-critical_IP_ROB_Stalls_Bucket_4: 83369
Critical_IP_ROB_Stalls_Bucket_5: 62
Non-critical_IP_ROB_Stalls_Bucket_5: 49654
Critical_IP_ROB_Stalls_Bucket_6: 1013
Non-critical_IP_ROB_Stalls_Bucket_6: 334723
0 => IPs accounting for >50 percent of stalls, 1 => 55, 2 => 60, 3 => 65 and so on till 90.
percent50: inf num IPs:  1
percent55: inf num IPs: 1
percent60: inf num IPs: 1
percent65: inf num IPs: 1
percent70: inf num IPs: 1
percent75: inf num IPs: 1
percent80: inf num IPs: 1
percent85: inf num IPs: 1
percent90: inf num IPs: 1
Critical_ROB_Stalls_Percent_0_Bucket_0: 1845
Non-critical_ROB_Stalls_Percent_0_Bucket_0: 1044938
Critical_ROB_Stalls_Percent_0_Bucket_1: 5677
Non-critical_ROB_Stalls_Percent_0_Bucket_1: 786505
Critical_ROB_Stalls_Percent_0_Bucket_2: 12028
Non-critical_ROB_Stalls_Percent_0_Bucket_2: 374347
Critical_ROB_Stalls_Percent_0_Bucket_3: 10854
Non-critical_ROB_Stalls_Percent_0_Bucket_3: 184801
Critical_ROB_Stalls_Percent_0_Bucket_4: 7823
Non-critical_ROB_Stalls_Percent_0_Bucket_4: 75581
Critical_ROB_Stalls_Percent_0_Bucket_5: 7638
Non-critical_ROB_Stalls_Percent_0_Bucket_5: 42078
Critical_ROB_Stalls_Percent_0_Bucket_6: 100627
Non-critical_ROB_Stalls_Percent_0_Bucket_6: 235109
Critical_ROB_Stalls_Percent_1_Bucket_0: 1845
Non-critical_ROB_Stalls_Percent_1_Bucket_0: 1044938
Critical_ROB_Stalls_Percent_1_Bucket_1: 5677
Non-critical_ROB_Stalls_Percent_1_Bucket_1: 786505
Critical_ROB_Stalls_Percent_1_Bucket_2: 12028
Non-critical_ROB_Stalls_Percent_1_Bucket_2: 374347
Critical_ROB_Stalls_Percent_1_Bucket_3: 10854
Non-critical_ROB_Stalls_Percent_1_Bucket_3: 184801
Critical_ROB_Stalls_Percent_1_Bucket_4: 7823
Non-critical_ROB_Stalls_Percent_1_Bucket_4: 75581
Critical_ROB_Stalls_Percent_1_Bucket_5: 7638
Non-critical_ROB_Stalls_Percent_1_Bucket_5: 42078
Critical_ROB_Stalls_Percent_1_Bucket_6: 100627
Non-critical_ROB_Stalls_Percent_1_Bucket_6: 235109
Critical_ROB_Stalls_Percent_2_Bucket_0: 1845
Non-critical_ROB_Stalls_Percent_2_Bucket_0: 1044938
Critical_ROB_Stalls_Percent_2_Bucket_1: 5677
Non-critical_ROB_Stalls_Percent_2_Bucket_1: 786505
Critical_ROB_Stalls_Percent_2_Bucket_2: 12028
Non-critical_ROB_Stalls_Percent_2_Bucket_2: 374347
Critical_ROB_Stalls_Percent_2_Bucket_3: 10854
Non-critical_ROB_Stalls_Percent_2_Bucket_3: 184801
Critical_ROB_Stalls_Percent_2_Bucket_4: 7823
Non-critical_ROB_Stalls_Percent_2_Bucket_4: 75581
Critical_ROB_Stalls_Percent_2_Bucket_5: 7638
Non-critical_ROB_Stalls_Percent_2_Bucket_5: 42078
Critical_ROB_Stalls_Percent_2_Bucket_6: 100627
Non-critical_ROB_Stalls_Percent_2_Bucket_6: 235109
Critical_ROB_Stalls_Percent_3_Bucket_0: 1845
Non-critical_ROB_Stalls_Percent_3_Bucket_0: 1044938
Critical_ROB_Stalls_Percent_3_Bucket_1: 5677
Non-critical_ROB_Stalls_Percent_3_Bucket_1: 786505
Critical_ROB_Stalls_Percent_3_Bucket_2: 12028
Non-critical_ROB_Stalls_Percent_3_Bucket_2: 374347
Critical_ROB_Stalls_Percent_3_Bucket_3: 10854
Non-critical_ROB_Stalls_Percent_3_Bucket_3: 184801
Critical_ROB_Stalls_Percent_3_Bucket_4: 7823
Non-critical_ROB_Stalls_Percent_3_Bucket_4: 75581
Critical_ROB_Stalls_Percent_3_Bucket_5: 7638
Non-critical_ROB_Stalls_Percent_3_Bucket_5: 42078
Critical_ROB_Stalls_Percent_3_Bucket_6: 100627
Non-critical_ROB_Stalls_Percent_3_Bucket_6: 235109
Critical_ROB_Stalls_Percent_4_Bucket_0: 1845
Non-critical_ROB_Stalls_Percent_4_Bucket_0: 1044938
Critical_ROB_Stalls_Percent_4_Bucket_1: 5677
Non-critical_ROB_Stalls_Percent_4_Bucket_1: 786505
Critical_ROB_Stalls_Percent_4_Bucket_2: 12028
Non-critical_ROB_Stalls_Percent_4_Bucket_2: 374347
Critical_ROB_Stalls_Percent_4_Bucket_3: 10854
Non-critical_ROB_Stalls_Percent_4_Bucket_3: 184801
Critical_ROB_Stalls_Percent_4_Bucket_4: 7823
Non-critical_ROB_Stalls_Percent_4_Bucket_4: 75581
Critical_ROB_Stalls_Percent_4_Bucket_5: 7638
Non-critical_ROB_Stalls_Percent_4_Bucket_5: 42078
Critical_ROB_Stalls_Percent_4_Bucket_6: 100627
Non-critical_ROB_Stalls_Percent_4_Bucket_6: 235109
Critical_ROB_Stalls_Percent_5_Bucket_0: 1845
Non-critical_ROB_Stalls_Percent_5_Bucket_0: 1044938
Critical_ROB_Stalls_Percent_5_Bucket_1: 5677
Non-critical_ROB_Stalls_Percent_5_Bucket_1: 786505
Critical_ROB_Stalls_Percent_5_Bucket_2: 12028
Non-critical_ROB_Stalls_Percent_5_Bucket_2: 374347
Critical_ROB_Stalls_Percent_5_Bucket_3: 10854
Non-critical_ROB_Stalls_Percent_5_Bucket_3: 184801
Critical_ROB_Stalls_Percent_5_Bucket_4: 7823
Non-critical_ROB_Stalls_Percent_5_Bucket_4: 75581
Critical_ROB_Stalls_Percent_5_Bucket_5: 7638
Non-critical_ROB_Stalls_Percent_5_Bucket_5: 42078
Critical_ROB_Stalls_Percent_5_Bucket_6: 100627
Non-critical_ROB_Stalls_Percent_5_Bucket_6: 235109
Critical_ROB_Stalls_Percent_6_Bucket_0: 1845
Non-critical_ROB_Stalls_Percent_6_Bucket_0: 1044938
Critical_ROB_Stalls_Percent_6_Bucket_1: 5677
Non-critical_ROB_Stalls_Percent_6_Bucket_1: 786505
Critical_ROB_Stalls_Percent_6_Bucket_2: 12028
Non-critical_ROB_Stalls_Percent_6_Bucket_2: 374347
Critical_ROB_Stalls_Percent_6_Bucket_3: 10854
Non-critical_ROB_Stalls_Percent_6_Bucket_3: 184801
Critical_ROB_Stalls_Percent_6_Bucket_4: 7823
Non-critical_ROB_Stalls_Percent_6_Bucket_4: 75581
Critical_ROB_Stalls_Percent_6_Bucket_5: 7638
Non-critical_ROB_Stalls_Percent_6_Bucket_5: 42078
Critical_ROB_Stalls_Percent_6_Bucket_6: 100627
Non-critical_ROB_Stalls_Percent_6_Bucket_6: 235109
Critical_ROB_Stalls_Percent_7_Bucket_0: 1845
Non-critical_ROB_Stalls_Percent_7_Bucket_0: 1044938
Critical_ROB_Stalls_Percent_7_Bucket_1: 5677
Non-critical_ROB_Stalls_Percent_7_Bucket_1: 786505
Critical_ROB_Stalls_Percent_7_Bucket_2: 12028
Non-critical_ROB_Stalls_Percent_7_Bucket_2: 374347
Critical_ROB_Stalls_Percent_7_Bucket_3: 10854
Non-critical_ROB_Stalls_Percent_7_Bucket_3: 184801
Critical_ROB_Stalls_Percent_7_Bucket_4: 7823
Non-critical_ROB_Stalls_Percent_7_Bucket_4: 75581
Critical_ROB_Stalls_Percent_7_Bucket_5: 7638
Non-critical_ROB_Stalls_Percent_7_Bucket_5: 42078
Critical_ROB_Stalls_Percent_7_Bucket_6: 100627
Non-critical_ROB_Stalls_Percent_7_Bucket_6: 235109
Critical_ROB_Stalls_Percent_8_Bucket_0: 1845
Non-critical_ROB_Stalls_Percent_8_Bucket_0: 1044938
Critical_ROB_Stalls_Percent_8_Bucket_1: 5677
Non-critical_ROB_Stalls_Percent_8_Bucket_1: 786505
Critical_ROB_Stalls_Percent_8_Bucket_2: 12028
Non-critical_ROB_Stalls_Percent_8_Bucket_2: 374347
Critical_ROB_Stalls_Percent_8_Bucket_3: 10854
Non-critical_ROB_Stalls_Percent_8_Bucket_3: 184801
Critical_ROB_Stalls_Percent_8_Bucket_4: 7823
Non-critical_ROB_Stalls_Percent_8_Bucket_4: 75581
Critical_ROB_Stalls_Percent_8_Bucket_5: 7638
Non-critical_ROB_Stalls_Percent_8_Bucket_5: 42078
Critical_ROB_Stalls_Percent_8_Bucket_6: 100627
Non-critical_ROB_Stalls_Percent_8_Bucket_6: 235109
Average ROB occupancy Load Stall Begin: 100.417
Average ROB occupancy Load Stall End: 109.599
Min ROB occupancy Load Stall Begin: 1
Max ROB occupancy Load Stall Begin: 352
Min ROB occupancy Load Stall End: 1
Max ROB occupancy Load Stall End: 352
Average ROB occupancy Critical Load Stall Begin: 275.024
Average ROB occupancy Critical Load Stall End: 290.833
Min ROB occupancy Critical Load Stall Begin: 3
Max ROB occupancy Critical Load Stall Begin: 352
Min ROB occupancy Critical Load Stall End: 3
Max ROB occupancy Critical Load Stall End: 352
 ROB Load Stall Begin Bucket Count 0: 1309247
 ROB Load Stall End Bucket Count 0: 1046783
 ROB Critical Load Stall Begin Bucket Count 0: 124
 ROB Critical Load Stall End Bucket Count 0: 112
 ROB Load Stall Begin Bucket Count 1: 640587
 ROB Load Stall End Bucket Count 1: 792182
 ROB Critical Load Stall Begin Bucket Count 1: 33
 ROB Critical Load Stall End Bucket Count 1: 35
 ROB Load Stall Begin Bucket Count 2: 334771
 ROB Load Stall End Bucket Count 2: 386375
 ROB Critical Load Stall Begin Bucket Count 2: 30
 ROB Critical Load Stall End Bucket Count 2: 30
 ROB Load Stall Begin Bucket Count 3: 163346
 ROB Load Stall End Bucket Count 3: 195655
 ROB Critical Load Stall Begin Bucket Count 3: 25
 ROB Critical Load Stall End Bucket Count 3: 30
 ROB Load Stall Begin Bucket Count 4: 71423
 ROB Load Stall End Bucket Count 4: 83404
 ROB Critical Load Stall Begin Bucket Count 4: 55
 ROB Critical Load Stall End Bucket Count 4: 22
 ROB Load Stall Begin Bucket Count 5: 44011
 ROB Load Stall End Bucket Count 5: 49716
 ROB Critical Load Stall Begin Bucket Count 5: 71
 ROB Critical Load Stall End Bucket Count 5: 47
 ROB Load Stall Begin Bucket Count 6: 326466
 ROB Load Stall End Bucket Count 6: 335736
 ROB Critical Load Stall Begin Bucket Count 6: 724
 ROB Critical Load Stall End Bucket Count 6: 786
PIST Tag Read Accesses: 0
PIST Read Accesses: 0
PIST Tag Write Accesses: 0
PIST Write Accesses: 0
Criticality detector called times: 0
Max global_stall_cycles_count: 0
Threshold Modified: 0 times, factor: 0
Sturdy critical IP cache stats: 
 Unused entries: 0
CIC Tag Read Accesses: 0
CIC Read Accesses: 0
CIC Tag Write Accesses: 0
CIC Write Accesses: 0
Wobbly critical IP cache stats: 
 Unused entries: 0
CIC Tag Read Accesses: 147220332
CIC Read Accesses: 0
CIC Tag Write Accesses: 65242
CIC Write Accesses: 0
ITLB TOTAL     ACCESS:    8761105  HIT:    8579996  MISS:     181109  HIT %:    97.9328  MISS %:    2.06719   MPKI: 3.62218
ITLB LOAD TRANSLATION ACCESS:    8150350  HIT:    8137047  MISS:      13303  HIT %:    99.8368  MISS %:    0.16322   MPKI: 0.26606
ITLB TRANSLATION FROM L1D PREFETCHER ACCESS:     610755  HIT:     442949  MISS:     167806  HIT %:    72.5248  MISS %:    27.4752   MPKI: 3.35612
ITLB PREFETCH  REQUESTED:          0  ISSUED:          0  USEFUL:     141003  USELESS:      26806
ITLB USEFUL LOAD PREFETCHES:     141003 PREFETCH ISSUED TO LOWER LEVEL:          0  ACCURACY: inf
ITLB TIMELY PREFETCHES:     141003 LATE PREFETCHES: 20 DROPPED PREFETCHES: 17
ITLB PREFETCHES SAME FILL-ORIGIN LEVEL: 0 DIFFERENT FILL-ORIGIN LEVEL: 0
ITLB AVERAGE MISS LATENCY: 4975.79 cycles
ITLB RQ	ACCESS:   11220295	FORWARD:          0	MERGED:    2445557	TO_CACHE:    8774738

DTLB TOTAL     ACCESS:   11598801  HIT:   11281916  MISS:     316885  HIT %:     97.268  MISS %:    2.73205   MPKI: 6.3377
DTLB LOAD TRANSLATION ACCESS:   11598801  HIT:   11281916  MISS:     316885  HIT %:     97.268  MISS %:    2.73205   MPKI: 6.3377
DTLB PREFETCH  REQUESTED:          0  ISSUED:          0  USEFUL:          0  USELESS:          0
DTLB USEFUL LOAD PREFETCHES:          0 PREFETCH ISSUED TO LOWER LEVEL:          0  ACCURACY: -nan
DTLB TIMELY PREFETCHES:          0 LATE PREFETCHES: 0 DROPPED PREFETCHES: 0
DTLB PREFETCHES SAME FILL-ORIGIN LEVEL: 0 DIFFERENT FILL-ORIGIN LEVEL: 0
DTLB AVERAGE MISS LATENCY: 10.3776 cycles
DTLB RQ	ACCESS:   13866635	FORWARD:          0	MERGED:    2251299	TO_CACHE:   11615336

STLB TOTAL     ACCESS:     497994  HIT:     493785  MISS:       4209  HIT %:    99.1548  MISS %:   0.845191   MPKI: 0.08418
STLB LOAD TRANSLATION ACCESS:     330168  HIT:     326286  MISS:       3882  HIT %:    98.8242  MISS %:    1.17577   MPKI: 0.07764
STLB TRANSLATION FROM L1D PREFETCHER ACCESS:     167826  HIT:     167499  MISS:        327  HIT %:    99.8052  MISS %:   0.194845   MPKI: 0.00654
STLB PREFETCH  REQUESTED:          0  ISSUED:          0  USEFUL:        250  USELESS:         59
STLB USEFUL LOAD PREFETCHES:        250 PREFETCH ISSUED TO LOWER LEVEL:          0  ACCURACY: inf
STLB TIMELY PREFETCHES:        250 LATE PREFETCHES: 0 DROPPED PREFETCHES: 17
STLB PREFETCHES SAME FILL-ORIGIN LEVEL: 0 DIFFERENT FILL-ORIGIN LEVEL: 0
STLB AVERAGE MISS LATENCY: 128.225 cycles
STLB RQ	ACCESS:     498011	FORWARD:          0	MERGED:          0	TO_CACHE:     498011

STLB Hit, L1D data hit: 0
STLB Hit, L2C data hit: 0
STLB Hit, LLC data hit: 0
STLB Hit, LLC data miss: 0
STLB STLB hints to L2: 0
L1D TOTAL     ACCESS:   13688856  HIT:   13122754  MISS:     566102  HIT %:    95.8645  MISS %:     4.1355   MPKI: 11.322
L1D LOAD      ACCESS:    8770967  HIT:    8280960  MISS:     490007  HIT %:    94.4133  MISS %:    5.58669   MPKI: 9.80014
L1D RFO       ACCESS:    4917889  HIT:    4841794  MISS:      76095  HIT %:    98.4527  MISS %:    1.54731   MPKI: 1.5219
L1D PREFETCH  REQUESTED:          0  ISSUED:          0  USEFUL:          0  USELESS:          0
L1D USEFUL LOAD PREFETCHES:          0 PREFETCH ISSUED TO LOWER LEVEL:          0  ACCURACY: -nan
L1D TIMELY PREFETCHES:          0 LATE PREFETCHES: 0 DROPPED PREFETCHES: 0
L1D PREFETCHES SAME FILL-ORIGIN LEVEL: 0 DIFFERENT FILL-ORIGIN LEVEL: 0
L1D AVERAGE MISS LATENCY: 57.98 cycles
L1D RQ	ACCESS:   12803929	FORWARD:          0	MERGED:    3889638	TO_CACHE:    8829050
L1D WQ	ACCESS:    5437654	FORWARD:      85241	MERGED:     400069	TO_CACHE:    5037585

L1D UNIQUE REGIONS ACCESSED: 0
L1D REGIONS CONFLICTS: 0
L1D Cross Page Prefetch Requests: 0
L1D Same Page Prefetch Requests: 0
L1D ROI Sum of L1D PQ occupancy: 0
L1D PREFETCHES PUSHED FROM L2C: 0
L1I TOTAL     ACCESS:   11190821  HIT:   10023127  MISS:    1167694  HIT %:    89.5656  MISS %:    10.4344   MPKI: 23.3539
L1I LOAD      ACCESS:    9641520  HIT:    9594431  MISS:      47089  HIT %:    99.5116  MISS %:   0.488398   MPKI: 0.94178
L1I PREFETCH  ACCESS:    1549301  HIT:     428696  MISS:    1120605  HIT %:    27.6703  MISS %:    72.3297   MPKI: 22.4121
L1I PREFETCH  REQUESTED:    1596333  ISSUED:    1595581  USEFUL:     842900  USELESS:     277748
L1I USEFUL LOAD PREFETCHES:     842900 PREFETCH ISSUED TO LOWER LEVEL:    1127480  ACCURACY: 74.7596
L1I TIMELY PREFETCHES:     842900 LATE PREFETCHES: 6875 DROPPED PREFETCHES: 22
L1I PREFETCHES SAME FILL-ORIGIN LEVEL: 1127480 DIFFERENT FILL-ORIGIN LEVEL: 0
L1I AVERAGE MISS LATENCY: 264892 cycles
L1I RQ	ACCESS:   14357470	FORWARD:          0	MERGED:    4707844	TO_CACHE:    9649626
L1I PQ	ACCESS:    1595581	FORWARD:          0	MERGED:      24912	TO_CACHE:    1570669

BTB TOTAL     ACCESS:    6145704  HIT:    5759281  MISS:     386423  HIT %:    93.7123  MISS %:    6.28769   MPKI: 7.72846
BTB BRANCH_DIRECT_JUMP	ACCESS:     735331  HIT:     732025  MISS:       3306
BTB BRANCH_INDIRECT	ACCESS:     269194  HIT:     145703  MISS:     123491
BTB BRANCH_CONDITIONAL	ACCESS:    3930750  HIT:    3920624  MISS:      10126
BTB BRANCH_DIRECT_CALL	ACCESS:     368758  HIT:     363374  MISS:       5384
BTB BRANCH_INDIRECT_CALL	ACCESS:     226975  HIT:     162973  MISS:      64002
BTB BRANCH_RETURN	ACCESS:     614696  HIT:     434582  MISS:     180114
BTB BRANCH_OTHER ACCESS:          0  HIT:          0  MISS:          0

L2C TOTAL     ACCESS:    1970226  HIT:    1792918  MISS:     177308  HIT %:    91.0006  MISS %:    8.99937   MPKI: 3.54616
L2C LOAD      ACCESS:     530094  HIT:     411873  MISS:     118221  HIT %:    77.6981  MISS %:    22.3019   MPKI: 2.36442
L2C DATA LOAD MPKI: 2.28168
L2C INSTRUCTION LOAD MPKI: 0.08274
L2C RFO       ACCESS:      76084  HIT:      29453  MISS:      46631  HIT %:    38.7112  MISS %:    61.2888   MPKI: 0.93262
L2C PREFETCH  ACCESS:    1127480  HIT:    1118810  MISS:       8670  HIT %:     99.231  MISS %:   0.768972   MPKI: 0.1734
L2C DATA PREFETCH MPKI: 0
L2C INSTRUCTION PREFETCH MPKI: 0.1734
L2C WRITEBACK ACCESS:     232146  HIT:     230137  MISS:       2009  HIT %:    99.1346  MISS %:   0.865404   MPKI: 0.04018
L2C LOAD TRANSLATION ACCESS:       4057  HIT:       2497  MISS:       1560  HIT %:    61.5479  MISS %:    38.4521   MPKI: 0.0312
L2C TRANSLATION FROM L1D PREFETCHER ACCESS:        365  HIT:        148  MISS:        217  HIT %:    40.5479  MISS %:    59.4521   MPKI: 0.00434
L2C PREFETCH  REQUESTED:          0  ISSUED:          0  USEFUL:       1111  USELESS:       9937
L2C USEFUL LOAD PREFETCHES:       1111 PREFETCH ISSUED TO LOWER LEVEL:       8670  ACCURACY: 12.8143
L2C TIMELY PREFETCHES:       1111 LATE PREFETCHES: 0 DROPPED PREFETCHES: 0
L2C PREFETCHES SAME FILL-ORIGIN LEVEL: 0 DIFFERENT FILL-ORIGIN LEVEL: 0
L2C AVERAGE MISS LATENCY: 148.067 cycles
L2C RQ	ACCESS:     610738	FORWARD:          0	MERGED:          0	TO_CACHE:     610600
L2C WQ	ACCESS:     232146	FORWARD:        138	MERGED:          0	TO_CACHE:     232146
L2C PQ	ACCESS:    1127480	FORWARD:          0	MERGED:          0	TO_CACHE:    1127480

L2C Instructions Evicting Data 9442
L2C Translations Evicting Data 1443
L2C Data Evicting Data 146977
L2C Instructions Evicting Instructions 3054
L2C Translations Evicting Instructions 300
L2C Data Evicting Instructions 12160
L2C Instructions Evicting Translations 311
L2C Translations Evicting Translations 34
L2C Data Evicting Translations 1578
L2C Dense regions hint from L2: 0
PSCL5 TOTAL     ACCESS:       4226  HIT:       4226  MISS:          0  HIT %:        100  MISS %:          0   MPKI: 0
PSCL5 LOAD TRANSLATION ACCESS:       3882  HIT:       3882  MISS:          0  HIT %:        100  MISS %:          0   MPKI: 0
PSCL5 TRANSLATION FROM L1D PREFETCHER ACCESS:        344  HIT:        344  MISS:          0  HIT %:        100  MISS %:          0   MPKI: 0
PSCL5 PREFETCH  REQUESTED:          0  ISSUED:          0  USEFUL:          0  USELESS:          0
PSCL5 USEFUL LOAD PREFETCHES:          0 PREFETCH ISSUED TO LOWER LEVEL:          0  ACCURACY: -nan
PSCL5 TIMELY PREFETCHES:          0 LATE PREFETCHES: 0 DROPPED PREFETCHES: 0
PSCL5 PREFETCHES SAME FILL-ORIGIN LEVEL: 0 DIFFERENT FILL-ORIGIN LEVEL: 0

PSCL4 TOTAL     ACCESS:       3936  HIT:       3929  MISS:          7  HIT %:    99.8222  MISS %:   0.177846   MPKI: 0.00014
PSCL4 LOAD TRANSLATION ACCESS:       3620  HIT:       3613  MISS:          7  HIT %:    99.8066  MISS %:    0.19337   MPKI: 0.00014
PSCL4 TRANSLATION FROM L1D PREFETCHER ACCESS:        316  HIT:        316  MISS:          0  HIT %:        100  MISS %:          0   MPKI: 0
PSCL4 PREFETCH  REQUESTED:          0  ISSUED:          0  USEFUL:          0  USELESS:          0
PSCL4 USEFUL LOAD PREFETCHES:          0 PREFETCH ISSUED TO LOWER LEVEL:          0  ACCURACY: -nan
PSCL4 TIMELY PREFETCHES:          0 LATE PREFETCHES: 0 DROPPED PREFETCHES: 0
PSCL4 PREFETCHES SAME FILL-ORIGIN LEVEL: 0 DIFFERENT FILL-ORIGIN LEVEL: 0

PSCL3 TOTAL     ACCESS:       4170  HIT:       4153  MISS:         17  HIT %:    99.5923  MISS %:   0.407674   MPKI: 0.00034
PSCL3 LOAD TRANSLATION ACCESS:       3835  HIT:       3818  MISS:         17  HIT %:    99.5567  MISS %:   0.443286   MPKI: 0.00034
PSCL3 TRANSLATION FROM L1D PREFETCHER ACCESS:        335  HIT:        335  MISS:          0  HIT %:        100  MISS %:          0   MPKI: 0
PSCL3 PREFETCH  REQUESTED:          0  ISSUED:          0  USEFUL:          0  USELESS:          0
PSCL3 USEFUL LOAD PREFETCHES:          0 PREFETCH ISSUED TO LOWER LEVEL:          0  ACCURACY: -nan
PSCL3 TIMELY PREFETCHES:          0 LATE PREFETCHES: 0 DROPPED PREFETCHES: 0
PSCL3 PREFETCHES SAME FILL-ORIGIN LEVEL: 0 DIFFERENT FILL-ORIGIN LEVEL: 0

PSCL2 TOTAL     ACCESS:       4226  HIT:       4049  MISS:        177  HIT %:    95.8116  MISS %:    4.18836   MPKI: 0.00354
PSCL2 LOAD TRANSLATION ACCESS:       3902  HIT:       3725  MISS:        177  HIT %:    95.4639  MISS %:    4.53614   MPKI: 0.00354
PSCL2 TRANSLATION FROM L1D PREFETCHER ACCESS:        324  HIT:        324  MISS:          0  HIT %:        100  MISS %:          0   MPKI: 0
PSCL2 PREFETCH  REQUESTED:          0  ISSUED:          0  USEFUL:          0  USELESS:          0
PSCL2 USEFUL LOAD PREFETCHES:          0 PREFETCH ISSUED TO LOWER LEVEL:          0  ACCURACY: -nan
PSCL2 TIMELY PREFETCHES:          0 LATE PREFETCHES: 0 DROPPED PREFETCHES: 0
PSCL2 PREFETCHES SAME FILL-ORIGIN LEVEL: 0 DIFFERENT FILL-ORIGIN LEVEL: 0

LLC TOTAL     ACCESS:     243693  HIT:     115567  MISS:     128126  HIT %:    47.4232  MISS %:    52.5768   MPKI: 2.56252
LLC LOAD      ACCESS:     118221  HIT:      40910  MISS:      77311  HIT %:    34.6047  MISS %:    65.3953   MPKI: 1.54622
LLC RFO       ACCESS:      46631  HIT:       4962  MISS:      41669  HIT %:     10.641  MISS %:     89.359   MPKI: 0.83338
LLC PREFETCH  ACCESS:       8670  HIT:       3805  MISS:       4865  HIT %:     43.887  MISS %:     56.113   MPKI: 0.0973
LLC WRITEBACK ACCESS:      68394  HIT:      65239  MISS:       3155  HIT %:     95.387  MISS %:    4.61298   MPKI: 0.0631
LLC LOAD TRANSLATION ACCESS:       1560  HIT:        563  MISS:        997  HIT %:    36.0897  MISS %:    63.9103   MPKI: 0.01994
LLC TRANSLATION FROM L1D PREFETCHER ACCESS:        217  HIT:         88  MISS:        129  HIT %:     40.553  MISS %:     59.447   MPKI: 0.00258
LLC PREFETCH  REQUESTED:          0  ISSUED:          0  USEFUL:        536  USELESS:      12072
LLC USEFUL LOAD PREFETCHES:        536 PREFETCH ISSUED TO LOWER LEVEL:       4865  ACCURACY: 11.0175
LLC TIMELY PREFETCHES:        536 LATE PREFETCHES: 0 DROPPED PREFETCHES: 0
LLC PREFETCHES SAME FILL-ORIGIN LEVEL: 0 DIFFERENT FILL-ORIGIN LEVEL: 0
LLC AVERAGE MISS LATENCY: 163.138 cycles
LLC RQ	ACCESS:     166629	FORWARD:          0	MERGED:          0	TO_CACHE:     166629
LLC WQ	ACCESS:      68394	FORWARD:          0	MERGED:          0	TO_CACHE:      68394
LLC PQ	ACCESS:       8670	FORWARD:          0	MERGED:          0	TO_CACHE:       8670

LLC Dense regions hint to LLC: 0

RAW hits: 1076006
Loads Generated: 13879936
Loads sent to L1D: 12803929
Stores Generated: 5437650
Stores sent to L1D: 5437654
Major fault: 0 Minor fault: 4494
Allocated PAGES: 4494
I-Shadow cache 408 bytes
Touched + WorthPF tables 6144 bytes 
MMA filter 174 bytes 
FNL filter 272 bytes 
TOTAL PREFETCHER STORAGE SIZE: 25174 bytes
CPU 0 L1I next line prefetcher final stats
[Bingo] PHT Access: 0
[Bingo] PHT Hit PC+Addr: 0
[Bingo] PHT Hit PC+Offs: 0
[Bingo] PHT Miss: 0
[Bingo] Prefetch PC+Addr: 0
[Bingo] Prefetch PC+Offs: 0
[Bingo] Useful PC+Addr: 0
[Bingo] Useful PC+Offs: 0
[Bingo] Useless PC+Addr: 0
[Bingo] Useless PC+Offs: 0
[Bingo] L1 Prefetch per Region: -nan
[Bingo] L2 Prefetch per Region: -nan
[Bingo] L3 Prefetch per Region: -nan
[Bingo] No Prefetch per Region: -nan
[Bingo] Number of Voters Mean: -nan
[Bingo] Number of Voters SD: -nan
PHT read accesses: 114
PHT write accesses: 128
AT read accesses: 128
AT write accesses: 0
FT read accesses: 58
FT write accesses: 0
PS read accesses: 0
PS write accesses: 0
PHT tag read accesses: 2250
PHT tag write accesses: 128
AT tag read accesses: 2836928
AT tag write accesses: 128
FT tag read accesses: 2836928
FT tag write accesses: 58
PS tag read accesses: 0
PS tag write accesses: 0

DRAM Statistics
 CHANNEL 0
 RQ ROW_BUFFER_HIT:      25149  ROW_BUFFER_MISS:      99819
 DBUS_CONGESTED:         41
 WQ ROW_BUFFER_HIT:      11279  ROW_BUFFER_MISS:      46016  FULL:          0

 AVG_CONGESTED_CYCLE: 4
 All warmup complete: 2
Channel 0 Bank busy for read cycles: 0
Channel 0 Bank busy for write cycles: 0
Channel 0
Rank 0
0banks busy for read cycles: 55363166
0banks busy for write cycles: 22324
1banks busy for read cycles: 7455555
1banks busy for write cycles: 3308614
2banks busy for read cycles: 2041739
2banks busy for write cycles: 1106792
3banks busy for read cycles: 687084
3banks busy for write cycles: 536727
4banks busy for read cycles: 195208
4banks busy for write cycles: 263539
5banks busy for read cycles: 114517
5banks busy for write cycles: 149337
6banks busy for read cycles: 52666
6banks busy for write cycles: 87639
7banks busy for read cycles: 43355
7banks busy for write cycles: 73639
8banks busy for read cycles: 85732
8banks busy for write cycles: 341021

CPU 0 Branch Prediction Accuracy: 98.8607% MPKI: 1.8623 Average ROB Occupancy at Mispredict: 74.649
Branch types
NOT_BRANCH: 41826774 83.6535%
BRANCH_DIRECT_JUMP: 735331 1.47066%
BRANCH_INDIRECT: 269194 0.538388%
BRANCH_CONDITIONAL: 5957947 11.9159%
BRANCH_DIRECT_CALL: 368758 0.737516%
BRANCH_INDIRECT_CALL: 226975 0.45395%
BRANCH_RETURN: 614696 1.22939%
BRANCH_OTHER: 0 0%

DRAM PAGES: 1048576
Allocated PAGES: 4494
