
*** ChampSim Multicore Out-of-Order Simulator ***

Warmup Instructions: 50000000
Simulation Instructions: 50000000
Number of CPUs: 1
LLC sets: 2048
LLC ways: 16
Off-chip DRAM Size: 4096 MB Channels: 1 Width: 64-bit Data Rate: 6400 MT/s
CPU 0 runs ../IPC-traces//client_007.champsimtrace.xz
.xz
NUM_OF_IPS_IN_CRITICAL_IP_TRAINING: 64
NUM_OF_CRITICAL_IP_TRAINING_TABLE_WAYS: 2
NUM_OF_CRITICAL_IP_TRAINING_TABLE_SETS: 32
WOBBLY_CRITICAL_IP_CACHE_SETS: 32
WOBBLY_CRITICAL_IP_CACHE_WAYS: 4
BTB has LRU replacement policy
ITLB has LRU replacement policy
DTLB has LRU replacement policy
STLB has LRU replacement policy
CPU 0 L1I next line prefetcher
L1I has LRU replacement policy
L1D has LRU replacement policy
Bingo PHT WAYS: 16 and PHT_SIZE: 16384
Initialize SRRIP state for L2C
Initialize DRRIP state for LLC
Heartbeat CPU 0 instructions: 10000003 cycles: 3033818 heartbeat IPC: 3.29618 cumulative IPC: 3.29618 (Simulation time: 0 hr 3 min 4 sec) 
Heartbeat CPU 0 instructions: 20000003 cycles: 5975496 heartbeat IPC: 3.39942 cumulative IPC: 3.347 (Simulation time: 0 hr 5 min 20 sec) 
Heartbeat CPU 0 instructions: 30000000 cycles: 9156637 heartbeat IPC: 3.14353 cumulative IPC: 3.27631 (Simulation time: 0 hr 7 min 50 sec) 
Heartbeat CPU 0 instructions: 40000003 cycles: 12444466 heartbeat IPC: 3.04152 cumulative IPC: 3.21428 (Simulation time: 0 hr 9 min 45 sec) 
Heartbeat CPU 0 instructions: 50000001 cycles: 15345638 heartbeat IPC: 3.44688 cumulative IPC: 3.25826 (Simulation time: 0 hr 11 min 31 sec) 

Warmup complete CPU 0 instructions: 50000001 cycles: 15345638 (Simulation time: 0 hr 11 min 31 sec) 

Heartbeat CPU 0 instructions: 60000003 cycles: 28480320 heartbeat IPC: 0.761343 cumulative IPC: 0.761343 (Simulation time: 0 hr 13 min 52 sec) 
Heartbeat CPU 0 instructions: 70000003 cycles: 45346659 heartbeat IPC: 0.592897 cumulative IPC: 0.666644 (Simulation time: 0 hr 16 min 21 sec) 
Heartbeat CPU 0 instructions: 80000001 cycles: 55690069 heartbeat IPC: 0.966799 cumulative IPC: 0.743597 (Simulation time: 0 hr 18 min 24 sec) 
Heartbeat CPU 0 instructions: 90000001 cycles: 70065380 heartbeat IPC: 0.695637 cumulative IPC: 0.730998 (Simulation time: 0 hr 20 min 39 sec) 
Heartbeat CPU 0 instructions: 100000000 cycles: 86219895 heartbeat IPC: 0.619022 cumulative IPC: 0.705475 (Simulation time: 0 hr 22 min 42 sec) 
Finished CPU 0 instructions: 50000001 cycles: 70874258 cumulative IPC: 0.705475 (Simulation time: 0 hr 22 min 42 sec) 

ChampSim completed all CPUs

Region of Interest Statistics

CPU 0 cumulative IPC: 0.705475 instructions: 50000001 cycles: 70874258

CPU 0 Average Load ROB stall cycles: 1.8696e+07
CPU 0 Fraction of times ROB stalled by Loads: 39.0372
CPU 0 Percentage of Load stall cycles in Total stall cycles: 2.37337e+08
Issued all: 30583766
Issued LT all: 25162179
rob_not_full_when_issued_lt_all: 18627411
Issued LT one: 19445823
rob_not_full_when_issued_lt_one: 14272190
 Total stall cycles: 58376663
 Total load stall cycles: 138549426587429
CPU 0 NUM of IPS identified critical: 0
CPU 0 Num of Load IPs stalling ROB: 12229
Threshold modification factor: 0
Max PIST entries: 64
Min PIST entries: 0
Avg PIST entries: 30.34
Trouble in retire width: 0.9058
MaC = Marked as critical.
lt_50_percent_before_Mac: 0
gt_90_percent_before_Mac: 0
gt_75_percent_before_Mac: 0
gt_50_percent_before_Mac: 0
stall_proportion_bin_same_before_after: 0
stall_proportion_bin_lower_before_after: 0
stall_proportion_bin_upper_before_after: 0
average_stall_proportion_before: -nan
average_stall_proportion_after: -nan
Critical IP stalls, total frequency: 0
Non-critical IP stalls, total frequency: 2892906
Total Freq all stalling IPs: 2892906
stat_90_percent_critical_ip_stalls_freq: 2603855
stat_90_percent_non_critical_ip_stalls_freq: 289051
Critical_IP_ROB_Stalls_Bucket_0: 0
Non-critical_IP_ROB_Stalls_Bucket_0: 1052460
Critical_IP_ROB_Stalls_Bucket_1: 0
Non-critical_IP_ROB_Stalls_Bucket_1: 795985
Critical_IP_ROB_Stalls_Bucket_2: 0
Non-critical_IP_ROB_Stalls_Bucket_2: 382612
Critical_IP_ROB_Stalls_Bucket_3: 0
Non-critical_IP_ROB_Stalls_Bucket_3: 194855
Critical_IP_ROB_Stalls_Bucket_4: 0
Non-critical_IP_ROB_Stalls_Bucket_4: 83038
Critical_IP_ROB_Stalls_Bucket_5: 0
Non-critical_IP_ROB_Stalls_Bucket_5: 49152
Critical_IP_ROB_Stalls_Bucket_6: 0
Non-critical_IP_ROB_Stalls_Bucket_6: 334804
0 => IPs accounting for >50 percent of stalls, 1 => 55, 2 => 60, 3 => 65 and so on till 90.
percent50: 50.0968 num IPs:  117
percent55: 55.0038 num IPs: 159
percent60: 60.0351 num IPs: 216
percent65: 65.054 num IPs: 290
percent70: 70.019 num IPs: 390
percent75: 75.0125 num IPs: 529
percent80: 80.0194 num IPs: 724
percent85: 85.0064 num IPs: 974
percent90: 90.0084 num IPs: 1367
Critical_ROB_Stalls_Percent_0_Bucket_0: 324560
Non-critical_ROB_Stalls_Percent_0_Bucket_0: 727900
Critical_ROB_Stalls_Percent_0_Bucket_1: 344001
Non-critical_ROB_Stalls_Percent_0_Bucket_1: 451984
Critical_ROB_Stalls_Percent_0_Bucket_2: 248734
Non-critical_ROB_Stalls_Percent_0_Bucket_2: 133878
Critical_ROB_Stalls_Percent_0_Bucket_3: 146144
Non-critical_ROB_Stalls_Percent_0_Bucket_3: 48711
Critical_ROB_Stalls_Percent_0_Bucket_4: 57282
Non-critical_ROB_Stalls_Percent_0_Bucket_4: 25756
Critical_ROB_Stalls_Percent_0_Bucket_5: 34449
Non-critical_ROB_Stalls_Percent_0_Bucket_5: 14703
Critical_ROB_Stalls_Percent_0_Bucket_6: 294083
Non-critical_ROB_Stalls_Percent_0_Bucket_6: 40721
Critical_ROB_Stalls_Percent_1_Bucket_0: 387049
Non-critical_ROB_Stalls_Percent_1_Bucket_0: 665411
Critical_ROB_Stalls_Percent_1_Bucket_1: 395194
Non-critical_ROB_Stalls_Percent_1_Bucket_1: 400791
Critical_ROB_Stalls_Percent_1_Bucket_2: 262901
Non-critical_ROB_Stalls_Percent_1_Bucket_2: 119711
Critical_ROB_Stalls_Percent_1_Bucket_3: 152067
Non-critical_ROB_Stalls_Percent_1_Bucket_3: 42788
Critical_ROB_Stalls_Percent_1_Bucket_4: 59811
Non-critical_ROB_Stalls_Percent_1_Bucket_4: 23227
Critical_ROB_Stalls_Percent_1_Bucket_5: 36404
Non-critical_ROB_Stalls_Percent_1_Bucket_5: 12748
Critical_ROB_Stalls_Percent_1_Bucket_6: 297781
Non-critical_ROB_Stalls_Percent_1_Bucket_6: 37023
Critical_ROB_Stalls_Percent_2_Bucket_0: 456123
Non-critical_ROB_Stalls_Percent_2_Bucket_0: 596337
Critical_ROB_Stalls_Percent_2_Bucket_1: 446286
Non-critical_ROB_Stalls_Percent_2_Bucket_1: 349699
Critical_ROB_Stalls_Percent_2_Bucket_2: 273715
Non-critical_ROB_Stalls_Percent_2_Bucket_2: 108897
Critical_ROB_Stalls_Percent_2_Bucket_3: 157380
Non-critical_ROB_Stalls_Percent_2_Bucket_3: 37475
Critical_ROB_Stalls_Percent_2_Bucket_4: 62258
Non-critical_ROB_Stalls_Percent_2_Bucket_4: 20780
Critical_ROB_Stalls_Percent_2_Bucket_5: 37452
Non-critical_ROB_Stalls_Percent_2_Bucket_5: 11700
Critical_ROB_Stalls_Percent_2_Bucket_6: 303545
Non-critical_ROB_Stalls_Percent_2_Bucket_6: 31259
Critical_ROB_Stalls_Percent_3_Bucket_0: 518640
Non-critical_ROB_Stalls_Percent_3_Bucket_0: 533820
Critical_ROB_Stalls_Percent_3_Bucket_1: 497963
Non-critical_ROB_Stalls_Percent_3_Bucket_1: 298022
Critical_ROB_Stalls_Percent_3_Bucket_2: 292563
Non-critical_ROB_Stalls_Percent_3_Bucket_2: 90049
Critical_ROB_Stalls_Percent_3_Bucket_3: 162116
Non-critical_ROB_Stalls_Percent_3_Bucket_3: 32739
Critical_ROB_Stalls_Percent_3_Bucket_4: 65956
Non-critical_ROB_Stalls_Percent_3_Bucket_4: 17082
Critical_ROB_Stalls_Percent_3_Bucket_5: 38915
Non-critical_ROB_Stalls_Percent_3_Bucket_5: 10237
Critical_ROB_Stalls_Percent_3_Bucket_6: 305798
Non-critical_ROB_Stalls_Percent_3_Bucket_6: 29006
Critical_ROB_Stalls_Percent_4_Bucket_0: 579623
Non-critical_ROB_Stalls_Percent_4_Bucket_0: 472837
Critical_ROB_Stalls_Percent_4_Bucket_1: 546711
Non-critical_ROB_Stalls_Percent_4_Bucket_1: 249274
Critical_ROB_Stalls_Percent_4_Bucket_2: 307612
Non-critical_ROB_Stalls_Percent_4_Bucket_2: 75000
Critical_ROB_Stalls_Percent_4_Bucket_3: 167686
Non-critical_ROB_Stalls_Percent_4_Bucket_3: 27169
Critical_ROB_Stalls_Percent_4_Bucket_4: 69419
Non-critical_ROB_Stalls_Percent_4_Bucket_4: 13619
Critical_ROB_Stalls_Percent_4_Bucket_5: 41453
Non-critical_ROB_Stalls_Percent_4_Bucket_5: 7699
Critical_ROB_Stalls_Percent_4_Bucket_6: 313079
Non-critical_ROB_Stalls_Percent_4_Bucket_6: 21725
Critical_ROB_Stalls_Percent_5_Bucket_0: 659590
Non-critical_ROB_Stalls_Percent_5_Bucket_0: 392870
Critical_ROB_Stalls_Percent_5_Bucket_1: 588209
Non-critical_ROB_Stalls_Percent_5_Bucket_1: 207776
Critical_ROB_Stalls_Percent_5_Bucket_2: 318967
Non-critical_ROB_Stalls_Percent_5_Bucket_2: 63645
Critical_ROB_Stalls_Percent_5_Bucket_3: 171613
Non-critical_ROB_Stalls_Percent_5_Bucket_3: 23242
Critical_ROB_Stalls_Percent_5_Bucket_4: 72697
Non-critical_ROB_Stalls_Percent_5_Bucket_4: 10341
Critical_ROB_Stalls_Percent_5_Bucket_5: 43197
Non-critical_ROB_Stalls_Percent_5_Bucket_5: 5955
Critical_ROB_Stalls_Percent_5_Bucket_6: 315768
Non-critical_ROB_Stalls_Percent_5_Bucket_6: 19036
Critical_ROB_Stalls_Percent_6_Bucket_0: 728265
Non-critical_ROB_Stalls_Percent_6_Bucket_0: 324195
Critical_ROB_Stalls_Percent_6_Bucket_1: 640086
Non-critical_ROB_Stalls_Percent_6_Bucket_1: 155899
Critical_ROB_Stalls_Percent_6_Bucket_2: 331929
Non-critical_ROB_Stalls_Percent_6_Bucket_2: 50683
Critical_ROB_Stalls_Percent_6_Bucket_3: 176009
Non-critical_ROB_Stalls_Percent_6_Bucket_3: 18846
Critical_ROB_Stalls_Percent_6_Bucket_4: 74632
Non-critical_ROB_Stalls_Percent_6_Bucket_4: 8406
Critical_ROB_Stalls_Percent_6_Bucket_5: 44343
Non-critical_ROB_Stalls_Percent_6_Bucket_5: 4809
Critical_ROB_Stalls_Percent_6_Bucket_6: 319619
Non-critical_ROB_Stalls_Percent_6_Bucket_6: 15185
Critical_ROB_Stalls_Percent_7_Bucket_0: 813845
Non-critical_ROB_Stalls_Percent_7_Bucket_0: 238615
Critical_ROB_Stalls_Percent_7_Bucket_1: 676220
Non-critical_ROB_Stalls_Percent_7_Bucket_1: 119765
Critical_ROB_Stalls_Percent_7_Bucket_2: 342527
Non-critical_ROB_Stalls_Percent_7_Bucket_2: 40085
Critical_ROB_Stalls_Percent_7_Bucket_3: 180258
Non-critical_ROB_Stalls_Percent_7_Bucket_3: 14597
Critical_ROB_Stalls_Percent_7_Bucket_4: 76866
Non-critical_ROB_Stalls_Percent_7_Bucket_4: 6172
Critical_ROB_Stalls_Percent_7_Bucket_5: 45390
Non-critical_ROB_Stalls_Percent_7_Bucket_5: 3762
Critical_ROB_Stalls_Percent_7_Bucket_6: 324048
Non-critical_ROB_Stalls_Percent_7_Bucket_6: 10756
Critical_ROB_Stalls_Percent_8_Bucket_0: 889967
Non-critical_ROB_Stalls_Percent_8_Bucket_0: 162493
Critical_ROB_Stalls_Percent_8_Bucket_1: 716599
Non-critical_ROB_Stalls_Percent_8_Bucket_1: 79386
Critical_ROB_Stalls_Percent_8_Bucket_2: 357574
Non-critical_ROB_Stalls_Percent_8_Bucket_2: 25038
Critical_ROB_Stalls_Percent_8_Bucket_3: 186158
Non-critical_ROB_Stalls_Percent_8_Bucket_3: 8697
Critical_ROB_Stalls_Percent_8_Bucket_4: 79316
Non-critical_ROB_Stalls_Percent_8_Bucket_4: 3722
Critical_ROB_Stalls_Percent_8_Bucket_5: 46774
Non-critical_ROB_Stalls_Percent_8_Bucket_5: 2378
Critical_ROB_Stalls_Percent_8_Bucket_6: 327467
Non-critical_ROB_Stalls_Percent_8_Bucket_6: 7337
Average ROB occupancy Load Stall Begin: 100.065
Average ROB occupancy Load Stall End: 109.227
Min ROB occupancy Load Stall Begin: 1
Max ROB occupancy Load Stall Begin: 352
Min ROB occupancy Load Stall End: 1
Max ROB occupancy Load Stall End: 352
Average ROB occupancy Critical Load Stall Begin: -nan
Average ROB occupancy Critical Load Stall End: -nan
Min ROB occupancy Critical Load Stall Begin: 400
Max ROB occupancy Critical Load Stall Begin: 0
Min ROB occupancy Critical Load Stall End: 400
Max ROB occupancy Critical Load Stall End: 0
 ROB Load Stall Begin Bucket Count 0: 1316159
 ROB Load Stall End Bucket Count 0: 1052460
 ROB Critical Load Stall Begin Bucket Count 0: 0
 ROB Critical Load Stall End Bucket Count 0: 0
 ROB Load Stall Begin Bucket Count 1: 642316
 ROB Load Stall End Bucket Count 1: 795985
 ROB Critical Load Stall Begin Bucket Count 1: 0
 ROB Critical Load Stall End Bucket Count 1: 0
 ROB Load Stall Begin Bucket Count 2: 331745
 ROB Load Stall End Bucket Count 2: 382612
 ROB Critical Load Stall Begin Bucket Count 2: 0
 ROB Critical Load Stall End Bucket Count 2: 0
 ROB Load Stall Begin Bucket Count 3: 162491
 ROB Load Stall End Bucket Count 3: 194855
 ROB Critical Load Stall Begin Bucket Count 3: 0
 ROB Critical Load Stall End Bucket Count 3: 0
 ROB Load Stall Begin Bucket Count 4: 71052
 ROB Load Stall End Bucket Count 4: 83038
 ROB Critical Load Stall Begin Bucket Count 4: 0
 ROB Critical Load Stall End Bucket Count 4: 0
 ROB Load Stall Begin Bucket Count 5: 43473
 ROB Load Stall End Bucket Count 5: 49152
 ROB Critical Load Stall Begin Bucket Count 5: 0
 ROB Critical Load Stall End Bucket Count 5: 0
 ROB Load Stall Begin Bucket Count 6: 325670
 ROB Load Stall End Bucket Count 6: 334804
 ROB Critical Load Stall Begin Bucket Count 6: 0
 ROB Critical Load Stall End Bucket Count 6: 0
PIST Tag Read Accesses: 1911110
PIST Read Accesses: 955555
PIST Tag Write Accesses: 1911110
PIST Write Accesses: 955555
Criticality detector called times: 1956229
Max global_stall_cycles_count: 4662949
Threshold Modified: 0 times, factor: 0
Sturdy critical IP cache stats: 
 Unused entries: 0
CIC Tag Read Accesses: 0
CIC Read Accesses: 0
CIC Tag Write Accesses: 0
CIC Write Accesses: 0
Wobbly critical IP cache stats: 
 Unused entries: 23
CIC Tag Read Accesses: 162909200
CIC Read Accesses: 0
CIC Tag Write Accesses: 294231
CIC Write Accesses: 0
ITLB TOTAL     ACCESS:    8763889  HIT:    8584182  MISS:     179707  HIT %:    97.9495  MISS %:    2.05054   MPKI: 3.59414
ITLB LOAD TRANSLATION ACCESS:    8149907  HIT:    8137085  MISS:      12822  HIT %:    99.8427  MISS %:   0.157327   MPKI: 0.25644
ITLB TRANSLATION FROM L1D PREFETCHER ACCESS:     613982  HIT:     447097  MISS:     166885  HIT %:    72.8192  MISS %:    27.1808   MPKI: 3.3377
ITLB PREFETCH  REQUESTED:          0  ISSUED:          0  USEFUL:     141755  USELESS:      25127
ITLB USEFUL LOAD PREFETCHES:     141755 PREFETCH ISSUED TO LOWER LEVEL:          0  ACCURACY: inf
ITLB TIMELY PREFETCHES:     141755 LATE PREFETCHES: 34 DROPPED PREFETCHES: 17
ITLB PREFETCHES SAME FILL-ORIGIN LEVEL: 0 DIFFERENT FILL-ORIGIN LEVEL: 0
ITLB AVERAGE MISS LATENCY: 6233.07 cycles
ITLB RQ	ACCESS:   11219985	FORWARD:          0	MERGED:    2442420	TO_CACHE:    8777565

DTLB TOTAL     ACCESS:   11603024  HIT:   11286259  MISS:     316765  HIT %:      97.27  MISS %:    2.73002   MPKI: 6.3353
DTLB LOAD TRANSLATION ACCESS:   11603024  HIT:   11286259  MISS:     316765  HIT %:      97.27  MISS %:    2.73002   MPKI: 6.3353
DTLB PREFETCH  REQUESTED:          0  ISSUED:          0  USEFUL:          0  USELESS:          0
DTLB USEFUL LOAD PREFETCHES:          0 PREFETCH ISSUED TO LOWER LEVEL:          0  ACCURACY: -nan
DTLB TIMELY PREFETCHES:          0 LATE PREFETCHES: 0 DROPPED PREFETCHES: 0
DTLB PREFETCHES SAME FILL-ORIGIN LEVEL: 0 DIFFERENT FILL-ORIGIN LEVEL: 0
DTLB AVERAGE MISS LATENCY: 10.3408 cycles
DTLB RQ	ACCESS:   13870531	FORWARD:          0	MERGED:    2250890	TO_CACHE:   11619641

STLB TOTAL     ACCESS:     496472  HIT:     492263  MISS:       4209  HIT %:    99.1522  MISS %:   0.847782   MPKI: 0.08418
STLB LOAD TRANSLATION ACCESS:     329553  HIT:     325649  MISS:       3904  HIT %:    98.8154  MISS %:    1.18463   MPKI: 0.07808
STLB TRANSLATION FROM L1D PREFETCHER ACCESS:     166919  HIT:     166614  MISS:        305  HIT %:    99.8173  MISS %:   0.182723   MPKI: 0.0061
STLB PREFETCH  REQUESTED:          0  ISSUED:          0  USEFUL:        235  USELESS:         55
STLB USEFUL LOAD PREFETCHES:        235 PREFETCH ISSUED TO LOWER LEVEL:          0  ACCURACY: inf
STLB TIMELY PREFETCHES:        235 LATE PREFETCHES: 0 DROPPED PREFETCHES: 17
STLB PREFETCHES SAME FILL-ORIGIN LEVEL: 0 DIFFERENT FILL-ORIGIN LEVEL: 0
STLB AVERAGE MISS LATENCY: 124.065 cycles
STLB RQ	ACCESS:     496489	FORWARD:          0	MERGED:          0	TO_CACHE:     496489

STLB Hit, L1D data hit: 0
STLB Hit, L2C data hit: 0
STLB Hit, LLC data hit: 0
STLB Hit, LLC data miss: 0
STLB STLB hints to L2: 0
L1D TOTAL     ACCESS:   13695933  HIT:   13129825  MISS:     566108  HIT %:    95.8666  MISS %:     4.1334   MPKI: 11.3222
L1D LOAD      ACCESS:    8778325  HIT:    8288304  MISS:     490021  HIT %:    94.4178  MISS %:    5.58217   MPKI: 9.80042
L1D RFO       ACCESS:    4917608  HIT:    4841521  MISS:      76087  HIT %:    98.4528  MISS %:    1.54724   MPKI: 1.52174
L1D PREFETCH  REQUESTED:          0  ISSUED:          0  USEFUL:          0  USELESS:          0
L1D USEFUL LOAD PREFETCHES:          0 PREFETCH ISSUED TO LOWER LEVEL:          0  ACCURACY: -nan
L1D TIMELY PREFETCHES:          0 LATE PREFETCHES: 0 DROPPED PREFETCHES: 0
L1D PREFETCHES SAME FILL-ORIGIN LEVEL: 0 DIFFERENT FILL-ORIGIN LEVEL: 0
L1D AVERAGE MISS LATENCY: 54.6679 cycles
L1D RQ	ACCESS:   12805617	FORWARD:          0	MERGED:    3886908	TO_CACHE:    8833285
L1D WQ	ACCESS:    5437654	FORWARD:      85424	MERGED:     400408	TO_CACHE:    5037246

L1D UNIQUE REGIONS ACCESSED: 0
L1D REGIONS CONFLICTS: 0
L1D Cross Page Prefetch Requests: 0
L1D Same Page Prefetch Requests: 0
L1D ROI Sum of L1D PQ occupancy: 0
L1D PREFETCHES PUSHED FROM L2C: 0
L1I TOTAL     ACCESS:   11190325  HIT:   10026695  MISS:    1163630  HIT %:    89.6015  MISS %:    10.3985   MPKI: 23.2726
L1I LOAD      ACCESS:    9641647  HIT:    9595808  MISS:      45839  HIT %:    99.5246  MISS %:   0.475427   MPKI: 0.91678
L1I PREFETCH  ACCESS:    1548678  HIT:     430887  MISS:    1117791  HIT %:    27.8229  MISS %:    72.1771   MPKI: 22.3558
L1I PREFETCH  REQUESTED:    1598380  ISSUED:    1597697  USEFUL:     843267  USELESS:     274571
L1I USEFUL LOAD PREFETCHES:     843267 PREFETCH ISSUED TO LOWER LEVEL:    1124464  ACCURACY: 74.9928
L1I TIMELY PREFETCHES:     843267 LATE PREFETCHES: 6673 DROPPED PREFETCHES: 22
L1I PREFETCHES SAME FILL-ORIGIN LEVEL: 1124464 DIFFERENT FILL-ORIGIN LEVEL: 0
L1I AVERAGE MISS LATENCY: 255080 cycles
L1I RQ	ACCESS:   14354466	FORWARD:          0	MERGED:    4705863	TO_CACHE:    9648603
L1I PQ	ACCESS:    1597697	FORWARD:          0	MERGED:      26315	TO_CACHE:    1571382

BTB TOTAL     ACCESS:    6145704  HIT:    5759281  MISS:     386423  HIT %:    93.7123  MISS %:    6.28769   MPKI: 7.72846
BTB BRANCH_DIRECT_JUMP	ACCESS:     735331  HIT:     732025  MISS:       3306
BTB BRANCH_INDIRECT	ACCESS:     269194  HIT:     145703  MISS:     123491
BTB BRANCH_CONDITIONAL	ACCESS:    3930750  HIT:    3920624  MISS:      10126
BTB BRANCH_DIRECT_CALL	ACCESS:     368758  HIT:     363374  MISS:       5384
BTB BRANCH_INDIRECT_CALL	ACCESS:     226975  HIT:     162973  MISS:      64002
BTB BRANCH_RETURN	ACCESS:     614696  HIT:     434582  MISS:     180114
BTB BRANCH_OTHER ACCESS:          0  HIT:          0  MISS:          0

L2C TOTAL     ACCESS:    1999533  HIT:    1810335  MISS:     189198  HIT %:    90.5379  MISS %:    9.46211   MPKI: 3.78396
L2C LOAD      ACCESS:     529061  HIT:     421627  MISS:     107434  HIT %:    79.6935  MISS %:    20.3065   MPKI: 2.14868
L2C DATA LOAD MPKI: 2.06416
L2C INSTRUCTION LOAD MPKI: 0.08452
L2C RFO       ACCESS:      76079  HIT:      29812  MISS:      46267  HIT %:    39.1856  MISS %:    60.8144   MPKI: 0.92534
L2C PREFETCH  ACCESS:    1157827  HIT:    1126070  MISS:      31757  HIT %:    97.2572  MISS %:    2.74281   MPKI: 0.63514
L2C DATA PREFETCH MPKI: 0.46272
L2C INSTRUCTION PREFETCH MPKI: 0.17242
L2C WRITEBACK ACCESS:     232147  HIT:     230196  MISS:       1951  HIT %:    99.1596  MISS %:   0.840416   MPKI: 0.03902
L2C LOAD TRANSLATION ACCESS:       4075  HIT:       2492  MISS:       1583  HIT %:    61.1534  MISS %:    38.8466   MPKI: 0.03166
L2C TRANSLATION FROM L1D PREFETCHER ACCESS:        344  HIT:        138  MISS:        206  HIT %:    40.1163  MISS %:    59.8837   MPKI: 0.00412
L2C PREFETCH  REQUESTED:      33614  ISSUED:      33614  USEFUL:      14112  USELESS:      19757
L2C USEFUL LOAD PREFETCHES:      14112 PREFETCH ISSUED TO LOWER LEVEL:      31859  ACCURACY: 44.2952
L2C TIMELY PREFETCHES:      14112 LATE PREFETCHES: 102 DROPPED PREFETCHES: 0
L2C PREFETCHES SAME FILL-ORIGIN LEVEL: 23238 DIFFERENT FILL-ORIGIN LEVEL: 0
L2C AVERAGE MISS LATENCY: 150.091 cycles
L2C RQ	ACCESS:     609693	FORWARD:          0	MERGED:          0	TO_CACHE:     609559
L2C WQ	ACCESS:     232147	FORWARD:        134	MERGED:          0	TO_CACHE:     232147
L2C PQ	ACCESS:    1158078	FORWARD:          0	MERGED:          0	TO_CACHE:    1158078

L2C Instructions Evicting Data 9487
L2C Translations Evicting Data 1457
L2C Data Evicting Data 158719
L2C Instructions Evicting Instructions 3060
L2C Translations Evicting Instructions 307
L2C Data Evicting Instructions 12267
L2C Instructions Evicting Translations 300
L2C Translations Evicting Translations 25
L2C Data Evicting Translations 1625
L2C Dense regions hint from L2: 0
PSCL5 TOTAL     ACCESS:       4226  HIT:       4226  MISS:          0  HIT %:        100  MISS %:          0   MPKI: 0
PSCL5 LOAD TRANSLATION ACCESS:       3904  HIT:       3904  MISS:          0  HIT %:        100  MISS %:          0   MPKI: 0
PSCL5 TRANSLATION FROM L1D PREFETCHER ACCESS:        322  HIT:        322  MISS:          0  HIT %:        100  MISS %:          0   MPKI: 0
PSCL5 PREFETCH  REQUESTED:          0  ISSUED:          0  USEFUL:          0  USELESS:          0
PSCL5 USEFUL LOAD PREFETCHES:          0 PREFETCH ISSUED TO LOWER LEVEL:          0  ACCURACY: -nan
PSCL5 TIMELY PREFETCHES:          0 LATE PREFETCHES: 0 DROPPED PREFETCHES: 0
PSCL5 PREFETCHES SAME FILL-ORIGIN LEVEL: 0 DIFFERENT FILL-ORIGIN LEVEL: 0

PSCL4 TOTAL     ACCESS:       3932  HIT:       3925  MISS:          7  HIT %:     99.822  MISS %:   0.178026   MPKI: 0.00014
PSCL4 LOAD TRANSLATION ACCESS:       3636  HIT:       3629  MISS:          7  HIT %:    99.8075  MISS %:   0.192519   MPKI: 0.00014
PSCL4 TRANSLATION FROM L1D PREFETCHER ACCESS:        296  HIT:        296  MISS:          0  HIT %:        100  MISS %:          0   MPKI: 0
PSCL4 PREFETCH  REQUESTED:          0  ISSUED:          0  USEFUL:          0  USELESS:          0
PSCL4 USEFUL LOAD PREFETCHES:          0 PREFETCH ISSUED TO LOWER LEVEL:          0  ACCURACY: -nan
PSCL4 TIMELY PREFETCHES:          0 LATE PREFETCHES: 0 DROPPED PREFETCHES: 0
PSCL4 PREFETCHES SAME FILL-ORIGIN LEVEL: 0 DIFFERENT FILL-ORIGIN LEVEL: 0

PSCL3 TOTAL     ACCESS:       4172  HIT:       4155  MISS:         17  HIT %:    99.5925  MISS %:   0.407478   MPKI: 0.00034
PSCL3 LOAD TRANSLATION ACCESS:       3857  HIT:       3840  MISS:         17  HIT %:    99.5592  MISS %:   0.440757   MPKI: 0.00034
PSCL3 TRANSLATION FROM L1D PREFETCHER ACCESS:        315  HIT:        315  MISS:          0  HIT %:        100  MISS %:          0   MPKI: 0
PSCL3 PREFETCH  REQUESTED:          0  ISSUED:          0  USEFUL:          0  USELESS:          0
PSCL3 USEFUL LOAD PREFETCHES:          0 PREFETCH ISSUED TO LOWER LEVEL:          0  ACCURACY: -nan
PSCL3 TIMELY PREFETCHES:          0 LATE PREFETCHES: 0 DROPPED PREFETCHES: 0
PSCL3 PREFETCHES SAME FILL-ORIGIN LEVEL: 0 DIFFERENT FILL-ORIGIN LEVEL: 0

PSCL2 TOTAL     ACCESS:       4226  HIT:       4052  MISS:        174  HIT %:    95.8826  MISS %:    4.11737   MPKI: 0.00348
PSCL2 LOAD TRANSLATION ACCESS:       3924  HIT:       3750  MISS:        174  HIT %:    95.5657  MISS %:    4.43425   MPKI: 0.00348
PSCL2 TRANSLATION FROM L1D PREFETCHER ACCESS:        302  HIT:        302  MISS:          0  HIT %:        100  MISS %:          0   MPKI: 0
PSCL2 PREFETCH  REQUESTED:          0  ISSUED:          0  USEFUL:          0  USELESS:          0
PSCL2 USEFUL LOAD PREFETCHES:          0 PREFETCH ISSUED TO LOWER LEVEL:          0  ACCURACY: -nan
PSCL2 TIMELY PREFETCHES:          0 LATE PREFETCHES: 0 DROPPED PREFETCHES: 0
PSCL2 PREFETCHES SAME FILL-ORIGIN LEVEL: 0 DIFFERENT FILL-ORIGIN LEVEL: 0

LLC TOTAL     ACCESS:     257558  HIT:     123182  MISS:     134376  HIT %:    47.8269  MISS %:    52.1731   MPKI: 2.68752
LLC LOAD      ACCESS:     107336  HIT:      40182  MISS:      67154  HIT %:    37.4357  MISS %:    62.5643   MPKI: 1.34308
LLC RFO       ACCESS:      46263  HIT:       5081  MISS:      41182  HIT %:    10.9829  MISS %:    89.0171   MPKI: 0.82364
LLC PREFETCH  ACCESS:      31859  HIT:       9464  MISS:      22395  HIT %:    29.7059  MISS %:    70.2941   MPKI: 0.4479
LLC WRITEBACK ACCESS:      70311  HIT:      67747  MISS:       2564  HIT %:    96.3533  MISS %:    3.64666   MPKI: 0.05128
LLC LOAD TRANSLATION ACCESS:       1583  HIT:        621  MISS:        962  HIT %:    39.2293  MISS %:    60.7707   MPKI: 0.01924
LLC TRANSLATION FROM L1D PREFETCHER ACCESS:        206  HIT:         87  MISS:        119  HIT %:     42.233  MISS %:     57.767   MPKI: 0.00238
LLC PREFETCH  REQUESTED:          0  ISSUED:          0  USEFUL:       4206  USELESS:      19249
LLC USEFUL LOAD PREFETCHES:       4206 PREFETCH ISSUED TO LOWER LEVEL:      22395  ACCURACY: 18.781
LLC TIMELY PREFETCHES:       4206 LATE PREFETCHES: 0 DROPPED PREFETCHES: 0
LLC PREFETCHES SAME FILL-ORIGIN LEVEL: 0 DIFFERENT FILL-ORIGIN LEVEL: 0
LLC AVERAGE MISS LATENCY: 168.838 cycles
LLC RQ	ACCESS:     155388	FORWARD:          0	MERGED:          0	TO_CACHE:     155388
LLC WQ	ACCESS:      70311	FORWARD:          0	MERGED:          0	TO_CACHE:      70311
LLC PQ	ACCESS:      31859	FORWARD:          0	MERGED:          0	TO_CACHE:      31859

LLC Dense regions hint to LLC: 0

RAW hits: 1074318
Loads Generated: 13879936
Loads sent to L1D: 12805617
Stores Generated: 5437650
Stores sent to L1D: 5437654
Major fault: 0 Minor fault: 4494
Allocated PAGES: 4494
I-Shadow cache 408 bytes
Touched + WorthPF tables 6144 bytes 
MMA filter 174 bytes 
FNL filter 272 bytes 
TOTAL PREFETCHER STORAGE SIZE: 25174 bytes
CPU 0 L1I next line prefetcher final stats
[Bingo] PHT Access: 7159
[Bingo] PHT Hit PC+Addr: 944
[Bingo] PHT Hit PC+Offs: 3877
[Bingo] PHT Miss: 2338
[Bingo] Prefetch PC+Addr: 0
[Bingo] Prefetch PC+Offs: 0
[Bingo] Useful PC+Addr: 0
[Bingo] Useful PC+Offs: 0
[Bingo] Useless PC+Addr: 0
[Bingo] Useless PC+Offs: 0
[Bingo] L1 Prefetch per Region: 0
[Bingo] L2 Prefetch per Region: 8.09687
[Bingo] L3 Prefetch per Region: 0
[Bingo] No Prefetch per Region: 23.9031
[Bingo] Number of Voters Mean: 6.14728
[Bingo] Number of Voters SD: 5.49117
PHT read accesses: 32498
PHT write accesses: 4635
AT read accesses: 86268
AT write accesses: 87193
FT read accesses: 24948
FT write accesses: 7159
PS read accesses: 10116
PS write accesses: 4821
PHT tag read accesses: 205376
PHT tag write accesses: 5579
AT tag read accesses: 4723493
AT tag write accesses: 90921
FT tag read accesses: 3530382
FT tag write accesses: 22825
PS tag read accesses: 1670397
PS tag write accesses: 14844

DRAM Statistics
 CHANNEL 0
 RQ ROW_BUFFER_HIT:      30952  ROW_BUFFER_MISS:     100854
 DBUS_CONGESTED:         45
 WQ ROW_BUFFER_HIT:      11148  ROW_BUFFER_MISS:      50002  FULL:          0

 AVG_CONGESTED_CYCLE: 4
 All warmup complete: 2
Channel 0 Bank busy for read cycles: 0
Channel 0 Bank busy for write cycles: 0
Channel 0
Rank 0
0banks busy for read cycles: 55289381
0banks busy for write cycles: 21343
1banks busy for read cycles: 6752843
1banks busy for write cycles: 3070063
2banks busy for read cycles: 1783272
2banks busy for write cycles: 981200
3banks busy for read cycles: 674514
3banks busy for write cycles: 468156
4banks busy for read cycles: 240365
4banks busy for write cycles: 250754
5banks busy for read cycles: 177976
5banks busy for write cycles: 175906
6banks busy for read cycles: 112863
6banks busy for write cycles: 123699
7banks busy for read cycles: 96767
7banks busy for write cycles: 114882
8banks busy for read cycles: 145057
8banks busy for write cycles: 395218

CPU 0 Branch Prediction Accuracy: 98.8607% MPKI: 1.8623 Average ROB Occupancy at Mispredict: 74.4929
Branch types
NOT_BRANCH: 41826774 83.6535%
BRANCH_DIRECT_JUMP: 735331 1.47066%
BRANCH_INDIRECT: 269194 0.538388%
BRANCH_CONDITIONAL: 5957947 11.9159%
BRANCH_DIRECT_CALL: 368758 0.737516%
BRANCH_INDIRECT_CALL: 226975 0.45395%
BRANCH_RETURN: 614696 1.22939%
BRANCH_OTHER: 0 0%

DRAM PAGES: 1048576
Allocated PAGES: 4494
