
*** ChampSim Multicore Out-of-Order Simulator ***

Warmup Instructions: 50000000
Simulation Instructions: 50000000
Number of CPUs: 1
LLC sets: 2048
LLC ways: 16
Off-chip DRAM Size: 4096 MB Channels: 1 Width: 64-bit Data Rate: 6400 MT/s
CPU 0 runs ../IPC-traces//client_004.champsimtrace.xz
.xz
BTB has LRU replacement policy
ITLB has LRU replacement policy
DTLB has LRU replacement policy
STLB has LRU replacement policy
CPU 0 L1I next line prefetcher
L1I has LRU replacement policy
IP Table Entries: 64
L1D has LRU replacement policy
Initialize SRRIP state for L2C
Initialize DRRIP state for LLC
Heartbeat CPU 0 instructions: 10000000 cycles: 3024626 heartbeat IPC: 3.30619 cumulative IPC: 3.30619 (Simulation time: 0 hr 3 min 12 sec) 
Heartbeat CPU 0 instructions: 20000001 cycles: 5874500 heartbeat IPC: 3.50893 cumulative IPC: 3.40455 (Simulation time: 0 hr 6 min 9 sec) 
Heartbeat CPU 0 instructions: 30000001 cycles: 8871836 heartbeat IPC: 3.3363 cumulative IPC: 3.38149 (Simulation time: 0 hr 9 min 18 sec) 
Heartbeat CPU 0 instructions: 40000001 cycles: 11864019 heartbeat IPC: 3.34204 cumulative IPC: 3.37154 (Simulation time: 0 hr 12 min 38 sec) 
Heartbeat CPU 0 instructions: 50000002 cycles: 14857808 heartbeat IPC: 3.34025 cumulative IPC: 3.36523 (Simulation time: 0 hr 15 min 52 sec) 

Warmup complete CPU 0 instructions: 50000002 cycles: 14857808 (Simulation time: 0 hr 15 min 52 sec) 

Heartbeat CPU 0 instructions: 60000000 cycles: 31039562 heartbeat IPC: 0.61798 cumulative IPC: 0.61798 (Simulation time: 0 hr 19 min 4 sec) 
Heartbeat CPU 0 instructions: 70000001 cycles: 48079857 heartbeat IPC: 0.586844 cumulative IPC: 0.60201 (Simulation time: 0 hr 22 min 24 sec) 
Heartbeat CPU 0 instructions: 80000000 cycles: 65309994 heartbeat IPC: 0.580378 cumulative IPC: 0.594622 (Simulation time: 0 hr 25 min 41 sec) 
Heartbeat CPU 0 instructions: 90000000 cycles: 81879544 heartbeat IPC: 0.603517 cumulative IPC: 0.596821 (Simulation time: 0 hr 29 min 3 sec) 
Heartbeat CPU 0 instructions: 100000002 cycles: 97841679 heartbeat IPC: 0.626483 cumulative IPC: 0.602527 (Simulation time: 0 hr 32 min 8 sec) 
Finished CPU 0 instructions: 50000000 cycles: 82983871 cumulative IPC: 0.602527 (Simulation time: 0 hr 32 min 8 sec) 

ChampSim completed all CPUs

Region of Interest Statistics

CPU 0 cumulative IPC: 0.602527 instructions: 50000000 cycles: 82983871

CPU 0 Average Load ROB stall cycles: 2.36821e+07
CPU 0 Fraction of times ROB stalled by Loads: 41.8113
CPU 0 Percentage of Load stall cycles in Total stall cycles: 3.22154e+08
Issued all: 27727298
Issued LT all: 22031429
rob_not_full_when_issued_lt_all: 21170872
Issued LT one: 16708683
rob_not_full_when_issued_lt_one: 15996466
 Total stall cycles: 67615233
 Total load stall cycles: 217825352217814
Unique Load IPs: 72894
CPU 0 NUM of IPS identified critical: 9
CPU 0 Num of Load IPs stalling ROB: 0
Threshold modification factor: 0
Trouble in retire width: -nan
MaC = Marked as critical.
lt_50_percent_before_Mac: 2
gt_90_percent_before_Mac: 2
gt_75_percent_before_Mac: 1
gt_50_percent_before_Mac: 1
stall_proportion_bin_same_before_after: 0
stall_proportion_bin_lower_before_after: 0
stall_proportion_bin_upper_before_after: 0
average_stall_proportion_before: 0.0357085
average_stall_proportion_after: 0.0457519
Critical_IP_Detector_Accuracy_70: 0
Critical_IP_Detector_Accuracy_80: 0
Critical_IP_Detector_Accuracy_90: 0
Critical_IP_Detector_Coverage_70: 0
Critical_IP_Detector_Coverage_80: 0
Critical_IP_Detector_Coverage_90: 0
stat_90_percent_critical_ip_stalls_freq: 31648
stat_90_percent_non_critical_ip_stalls_freq: 18446744073709519968
AVERAGE_ROB_Occupancy_90_Percent_Critical_IP_Stalls: 11.0901
AVERAGE_ROB_Occupancy_90_Percent_Non_Critical_IP_Stalls: 1.10526e-11
Critical_IP_ROB_Stalls_Bucket_0: 1694
Non-critical_IP_ROB_Stalls_Bucket_0: 2418530
Critical_IP_ROB_Stalls_Bucket_1: 2012
Non-critical_IP_ROB_Stalls_Bucket_1: 919780
Critical_IP_ROB_Stalls_Bucket_2: 380
Non-critical_IP_ROB_Stalls_Bucket_2: 314321
Critical_IP_ROB_Stalls_Bucket_3: 112
Non-critical_IP_ROB_Stalls_Bucket_3: 92756
Critical_IP_ROB_Stalls_Bucket_4: 15
Non-critical_IP_ROB_Stalls_Bucket_4: 31517
Critical_IP_ROB_Stalls_Bucket_5: 4
Non-critical_IP_ROB_Stalls_Bucket_5: 16272
Critical_IP_ROB_Stalls_Bucket_6: 34
Non-critical_IP_ROB_Stalls_Bucket_6: 48319
0 => IPs accounting for >50 percent of stalls, 1 => 55, 2 => 60, 3 => 65 and so on till 90.
percent50: inf num IPs:  1
percent55: inf num IPs: 1
percent60: inf num IPs: 1
percent65: inf num IPs: 1
percent70: inf num IPs: 1
percent75: inf num IPs: 1
percent80: inf num IPs: 1
percent85: inf num IPs: 1
percent90: inf num IPs: 1
Critical_ROB_Stalls_Percent_0_Bucket_0: 31643
Non-critical_ROB_Stalls_Percent_0_Bucket_0: 2388581
Critical_ROB_Stalls_Percent_0_Bucket_1: 4
Non-critical_ROB_Stalls_Percent_0_Bucket_1: 921788
Critical_ROB_Stalls_Percent_0_Bucket_2: 1
Non-critical_ROB_Stalls_Percent_0_Bucket_2: 314700
Critical_ROB_Stalls_Percent_0_Bucket_3: 0
Non-critical_ROB_Stalls_Percent_0_Bucket_3: 92868
Critical_ROB_Stalls_Percent_0_Bucket_4: 0
Non-critical_ROB_Stalls_Percent_0_Bucket_4: 31532
Critical_ROB_Stalls_Percent_0_Bucket_5: 0
Non-critical_ROB_Stalls_Percent_0_Bucket_5: 16276
Critical_ROB_Stalls_Percent_0_Bucket_6: 0
Non-critical_ROB_Stalls_Percent_0_Bucket_6: 48353
Critical_ROB_Stalls_Percent_1_Bucket_0: 31643
Non-critical_ROB_Stalls_Percent_1_Bucket_0: 2388581
Critical_ROB_Stalls_Percent_1_Bucket_1: 4
Non-critical_ROB_Stalls_Percent_1_Bucket_1: 921788
Critical_ROB_Stalls_Percent_1_Bucket_2: 1
Non-critical_ROB_Stalls_Percent_1_Bucket_2: 314700
Critical_ROB_Stalls_Percent_1_Bucket_3: 0
Non-critical_ROB_Stalls_Percent_1_Bucket_3: 92868
Critical_ROB_Stalls_Percent_1_Bucket_4: 0
Non-critical_ROB_Stalls_Percent_1_Bucket_4: 31532
Critical_ROB_Stalls_Percent_1_Bucket_5: 0
Non-critical_ROB_Stalls_Percent_1_Bucket_5: 16276
Critical_ROB_Stalls_Percent_1_Bucket_6: 0
Non-critical_ROB_Stalls_Percent_1_Bucket_6: 48353
Critical_ROB_Stalls_Percent_2_Bucket_0: 31643
Non-critical_ROB_Stalls_Percent_2_Bucket_0: 2388581
Critical_ROB_Stalls_Percent_2_Bucket_1: 4
Non-critical_ROB_Stalls_Percent_2_Bucket_1: 921788
Critical_ROB_Stalls_Percent_2_Bucket_2: 1
Non-critical_ROB_Stalls_Percent_2_Bucket_2: 314700
Critical_ROB_Stalls_Percent_2_Bucket_3: 0
Non-critical_ROB_Stalls_Percent_2_Bucket_3: 92868
Critical_ROB_Stalls_Percent_2_Bucket_4: 0
Non-critical_ROB_Stalls_Percent_2_Bucket_4: 31532
Critical_ROB_Stalls_Percent_2_Bucket_5: 0
Non-critical_ROB_Stalls_Percent_2_Bucket_5: 16276
Critical_ROB_Stalls_Percent_2_Bucket_6: 0
Non-critical_ROB_Stalls_Percent_2_Bucket_6: 48353
Critical_ROB_Stalls_Percent_3_Bucket_0: 31643
Non-critical_ROB_Stalls_Percent_3_Bucket_0: 2388581
Critical_ROB_Stalls_Percent_3_Bucket_1: 4
Non-critical_ROB_Stalls_Percent_3_Bucket_1: 921788
Critical_ROB_Stalls_Percent_3_Bucket_2: 1
Non-critical_ROB_Stalls_Percent_3_Bucket_2: 314700
Critical_ROB_Stalls_Percent_3_Bucket_3: 0
Non-critical_ROB_Stalls_Percent_3_Bucket_3: 92868
Critical_ROB_Stalls_Percent_3_Bucket_4: 0
Non-critical_ROB_Stalls_Percent_3_Bucket_4: 31532
Critical_ROB_Stalls_Percent_3_Bucket_5: 0
Non-critical_ROB_Stalls_Percent_3_Bucket_5: 16276
Critical_ROB_Stalls_Percent_3_Bucket_6: 0
Non-critical_ROB_Stalls_Percent_3_Bucket_6: 48353
Critical_ROB_Stalls_Percent_4_Bucket_0: 31643
Non-critical_ROB_Stalls_Percent_4_Bucket_0: 2388581
Critical_ROB_Stalls_Percent_4_Bucket_1: 4
Non-critical_ROB_Stalls_Percent_4_Bucket_1: 921788
Critical_ROB_Stalls_Percent_4_Bucket_2: 1
Non-critical_ROB_Stalls_Percent_4_Bucket_2: 314700
Critical_ROB_Stalls_Percent_4_Bucket_3: 0
Non-critical_ROB_Stalls_Percent_4_Bucket_3: 92868
Critical_ROB_Stalls_Percent_4_Bucket_4: 0
Non-critical_ROB_Stalls_Percent_4_Bucket_4: 31532
Critical_ROB_Stalls_Percent_4_Bucket_5: 0
Non-critical_ROB_Stalls_Percent_4_Bucket_5: 16276
Critical_ROB_Stalls_Percent_4_Bucket_6: 0
Non-critical_ROB_Stalls_Percent_4_Bucket_6: 48353
Critical_ROB_Stalls_Percent_5_Bucket_0: 31643
Non-critical_ROB_Stalls_Percent_5_Bucket_0: 2388581
Critical_ROB_Stalls_Percent_5_Bucket_1: 4
Non-critical_ROB_Stalls_Percent_5_Bucket_1: 921788
Critical_ROB_Stalls_Percent_5_Bucket_2: 1
Non-critical_ROB_Stalls_Percent_5_Bucket_2: 314700
Critical_ROB_Stalls_Percent_5_Bucket_3: 0
Non-critical_ROB_Stalls_Percent_5_Bucket_3: 92868
Critical_ROB_Stalls_Percent_5_Bucket_4: 0
Non-critical_ROB_Stalls_Percent_5_Bucket_4: 31532
Critical_ROB_Stalls_Percent_5_Bucket_5: 0
Non-critical_ROB_Stalls_Percent_5_Bucket_5: 16276
Critical_ROB_Stalls_Percent_5_Bucket_6: 0
Non-critical_ROB_Stalls_Percent_5_Bucket_6: 48353
Critical_ROB_Stalls_Percent_6_Bucket_0: 31643
Non-critical_ROB_Stalls_Percent_6_Bucket_0: 2388581
Critical_ROB_Stalls_Percent_6_Bucket_1: 4
Non-critical_ROB_Stalls_Percent_6_Bucket_1: 921788
Critical_ROB_Stalls_Percent_6_Bucket_2: 1
Non-critical_ROB_Stalls_Percent_6_Bucket_2: 314700
Critical_ROB_Stalls_Percent_6_Bucket_3: 0
Non-critical_ROB_Stalls_Percent_6_Bucket_3: 92868
Critical_ROB_Stalls_Percent_6_Bucket_4: 0
Non-critical_ROB_Stalls_Percent_6_Bucket_4: 31532
Critical_ROB_Stalls_Percent_6_Bucket_5: 0
Non-critical_ROB_Stalls_Percent_6_Bucket_5: 16276
Critical_ROB_Stalls_Percent_6_Bucket_6: 0
Non-critical_ROB_Stalls_Percent_6_Bucket_6: 48353
Critical_ROB_Stalls_Percent_7_Bucket_0: 31643
Non-critical_ROB_Stalls_Percent_7_Bucket_0: 2388581
Critical_ROB_Stalls_Percent_7_Bucket_1: 4
Non-critical_ROB_Stalls_Percent_7_Bucket_1: 921788
Critical_ROB_Stalls_Percent_7_Bucket_2: 1
Non-critical_ROB_Stalls_Percent_7_Bucket_2: 314700
Critical_ROB_Stalls_Percent_7_Bucket_3: 0
Non-critical_ROB_Stalls_Percent_7_Bucket_3: 92868
Critical_ROB_Stalls_Percent_7_Bucket_4: 0
Non-critical_ROB_Stalls_Percent_7_Bucket_4: 31532
Critical_ROB_Stalls_Percent_7_Bucket_5: 0
Non-critical_ROB_Stalls_Percent_7_Bucket_5: 16276
Critical_ROB_Stalls_Percent_7_Bucket_6: 0
Non-critical_ROB_Stalls_Percent_7_Bucket_6: 48353
Critical_ROB_Stalls_Percent_8_Bucket_0: 31643
Non-critical_ROB_Stalls_Percent_8_Bucket_0: 2388581
Critical_ROB_Stalls_Percent_8_Bucket_1: 4
Non-critical_ROB_Stalls_Percent_8_Bucket_1: 921788
Critical_ROB_Stalls_Percent_8_Bucket_2: 1
Non-critical_ROB_Stalls_Percent_8_Bucket_2: 314700
Critical_ROB_Stalls_Percent_8_Bucket_3: 0
Non-critical_ROB_Stalls_Percent_8_Bucket_3: 92868
Critical_ROB_Stalls_Percent_8_Bucket_4: 0
Non-critical_ROB_Stalls_Percent_8_Bucket_4: 31532
Critical_ROB_Stalls_Percent_8_Bucket_5: 0
Non-critical_ROB_Stalls_Percent_8_Bucket_5: 16276
Critical_ROB_Stalls_Percent_8_Bucket_6: 0
Non-critical_ROB_Stalls_Percent_8_Bucket_6: 48353
Average ROB occupancy Load Stall Begin: 45.6313
Average ROB occupancy Load Stall End: 53.1067
Min ROB occupancy Load Stall Begin: 1
Max ROB occupancy Load Stall Begin: 352
Min ROB occupancy Load Stall End: 1
Max ROB occupancy Load Stall End: 352
Average ROB occupancy Critical Load Stall Begin: 29.9883
Average ROB occupancy Critical Load Stall End: 36.9416
Min ROB occupancy Critical Load Stall Begin: 4
Max ROB occupancy Critical Load Stall Begin: 213
Min ROB occupancy Critical Load Stall End: 4
Max ROB occupancy Critical Load Stall End: 213
 ROB Load Stall Begin Bucket Count 0: 2712296
 ROB Load Stall End Bucket Count 0: 2420224
 ROB Critical Load Stall Begin Bucket Count 0: 652
 ROB Critical Load Stall End Bucket Count 0: 580
 ROB Load Stall Begin Bucket Count 1: 722419
 ROB Load Stall End Bucket Count 1: 921792
 ROB Critical Load Stall Begin Bucket Count 1: 73
 ROB Critical Load Stall End Bucket Count 1: 142
 ROB Load Stall Begin Bucket Count 2: 250416
 ROB Load Stall End Bucket Count 2: 314701
 ROB Critical Load Stall Begin Bucket Count 2: 34
 ROB Critical Load Stall End Bucket Count 2: 36
 ROB Load Stall Begin Bucket Count 3: 73002
 ROB Load Stall End Bucket Count 3: 92868
 ROB Critical Load Stall Begin Bucket Count 3: 7
 ROB Critical Load Stall End Bucket Count 3: 9
 ROB Load Stall Begin Bucket Count 4: 26689
 ROB Load Stall End Bucket Count 4: 31532
 ROB Critical Load Stall Begin Bucket Count 4: 4
 ROB Critical Load Stall End Bucket Count 4: 4
 ROB Load Stall Begin Bucket Count 5: 14719
 ROB Load Stall End Bucket Count 5: 16276
 ROB Critical Load Stall Begin Bucket Count 5: 0
 ROB Critical Load Stall End Bucket Count 5: 0
 ROB Load Stall Begin Bucket Count 6: 46205
 ROB Load Stall End Bucket Count 6: 48353
 ROB Critical Load Stall Begin Bucket Count 6: 0
 ROB Critical Load Stall End Bucket Count 6: 0
PIST Tag Read Accesses: 0
PIST Read Accesses: 0
PIST Tag Write Accesses: 0
PIST Write Accesses: 0
Criticality detector called times: 0
Max global_stall_cycles_count: 0
Threshold Modified: 0 times, factor: 0
Sturdy critical IP cache stats: 
 Unused entries: 0
CIC Tag Read Accesses: 0
CIC Read Accesses: 0
CIC Tag Write Accesses: 0
CIC Write Accesses: 0
Wobbly critical IP cache stats: 
 Unused entries: 0
CIC Tag Read Accesses: 147790548
CIC Read Accesses: 0
CIC Tag Write Accesses: 5902
CIC Write Accesses: 0
ITLB TOTAL     ACCESS:    9143572  HIT:    9048407  MISS:      95165  HIT %:    98.9592  MISS %:    1.04079   MPKI: 1.9033
ITLB LOAD TRANSLATION ACCESS:    8557601  HIT:    8508765  MISS:      48836  HIT %:    99.4293  MISS %:   0.570674   MPKI: 0.97672
ITLB TRANSLATION FROM L1D PREFETCHER ACCESS:     585971  HIT:     539642  MISS:      46329  HIT %:    92.0936  MISS %:    7.90636   MPKI: 0.92658
ITLB PREFETCH  REQUESTED:          0  ISSUED:          0  USEFUL:      35549  USELESS:      10777
ITLB USEFUL LOAD PREFETCHES:      35549 PREFETCH ISSUED TO LOWER LEVEL:          0  ACCURACY: inf
ITLB TIMELY PREFETCHES:      35549 LATE PREFETCHES: 76 DROPPED PREFETCHES: 86
ITLB PREFETCHES SAME FILL-ORIGIN LEVEL: 0 DIFFERENT FILL-ORIGIN LEVEL: 0
ITLB AVERAGE MISS LATENCY: 45227.8 cycles
ITLB RQ	ACCESS:   11320681	FORWARD:          0	MERGED:    2163432	TO_CACHE:    9157249

DTLB TOTAL     ACCESS:   11886378  HIT:   11693354  MISS:     193024  HIT %:    98.3761  MISS %:    1.62391   MPKI: 3.86048
DTLB LOAD TRANSLATION ACCESS:   11886378  HIT:   11693354  MISS:     193024  HIT %:    98.3761  MISS %:    1.62391   MPKI: 3.86048
DTLB PREFETCH  REQUESTED:          0  ISSUED:          0  USEFUL:          0  USELESS:          0
DTLB USEFUL LOAD PREFETCHES:          0 PREFETCH ISSUED TO LOWER LEVEL:          0  ACCURACY: -nan
DTLB TIMELY PREFETCHES:          0 LATE PREFETCHES: 0 DROPPED PREFETCHES: 0
DTLB PREFETCHES SAME FILL-ORIGIN LEVEL: 0 DIFFERENT FILL-ORIGIN LEVEL: 0
DTLB AVERAGE MISS LATENCY: 10.3159 cycles
DTLB RQ	ACCESS:   14400096	FORWARD:          0	MERGED:    2503615	TO_CACHE:   11896481

STLB TOTAL     ACCESS:     289418  HIT:     285033  MISS:       4385  HIT %:    98.4849  MISS %:    1.51511   MPKI: 0.0877
STLB LOAD TRANSLATION ACCESS:     241784  HIT:     238028  MISS:       3756  HIT %:    98.4465  MISS %:    1.55345   MPKI: 0.07512
STLB TRANSLATION FROM L1D PREFETCHER ACCESS:      47634  HIT:      47005  MISS:        629  HIT %:    98.6795  MISS %:    1.32049   MPKI: 0.01258
STLB PREFETCH  REQUESTED:          0  ISSUED:          0  USEFUL:        525  USELESS:        130
STLB USEFUL LOAD PREFETCHES:        525 PREFETCH ISSUED TO LOWER LEVEL:          0  ACCURACY: inf
STLB TIMELY PREFETCHES:        525 LATE PREFETCHES: 0 DROPPED PREFETCHES: 86
STLB PREFETCHES SAME FILL-ORIGIN LEVEL: 0 DIFFERENT FILL-ORIGIN LEVEL: 0
STLB AVERAGE MISS LATENCY: 92.7751 cycles
STLB RQ	ACCESS:     289608	FORWARD:          0	MERGED:        104	TO_CACHE:     289504

STLB Hit, L1D data hit: 0
STLB Hit, L2C data hit: 0
STLB Hit, LLC data hit: 0
STLB Hit, LLC data miss: 0
STLB STLB hints to L2: 0
L1D TOTAL     ACCESS:   14122479  HIT:   13593468  MISS:     529011  HIT %:    96.2541  MISS %:    3.74588   MPKI: 10.5802
L1D LOAD      ACCESS:    9294391  HIT:    8897217  MISS:     397174  HIT %:    95.7267  MISS %:    4.27327   MPKI: 7.94348
L1D RFO       ACCESS:    4826802  HIT:    4695711  MISS:     131091  HIT %:    97.2841  MISS %:     2.7159   MPKI: 2.62182
L1D PREFETCH  ACCESS:       1286  HIT:        540  MISS:        746  HIT %:    41.9907  MISS %:    58.0093   MPKI: 0.01492
L1D PREFETCH  REQUESTED:       2666  ISSUED:       2666  USEFUL:        274  USELESS:        508
L1D USEFUL LOAD PREFETCHES:        274 PREFETCH ISSUED TO LOWER LEVEL:        770  ACCURACY: 35.5844
L1D TIMELY PREFETCHES:        274 LATE PREFETCHES: 22 DROPPED PREFETCHES: 0
L1D PREFETCHES SAME FILL-ORIGIN LEVEL: 770 DIFFERENT FILL-ORIGIN LEVEL: 0
L1D AVERAGE MISS LATENCY: 3717.82 cycles
L1D RQ	ACCESS:   13200273	FORWARD:          0	MERGED:    3775633	TO_CACHE:    9327828
L1D WQ	ACCESS:    5238055	FORWARD:      96812	MERGED:     165787	TO_CACHE:    5072268
L1D PQ	ACCESS:       1333	FORWARD:          0	MERGED:          0	TO_CACHE:       1333

L1D UNIQUE REGIONS ACCESSED: 0
L1D REGIONS CONFLICTS: 0
L1D Cross Page Prefetch Requests: 0
L1D Same Page Prefetch Requests: 280928
L1D ROI Sum of L1D PQ occupancy: 17358
L1D PREFETCHES PUSHED FROM L2C: 0
L1I TOTAL     ACCESS:   11241566  HIT:   10349373  MISS:     892193  HIT %:    92.0634  MISS %:    7.93655   MPKI: 17.8439
L1I LOAD      ACCESS:    9790726  HIT:    9598039  MISS:     192687  HIT %:    98.0319  MISS %:    1.96806   MPKI: 3.85374
L1I PREFETCH  ACCESS:    1450840  HIT:     751334  MISS:     699506  HIT %:    51.7861  MISS %:    48.2139   MPKI: 13.9901
L1I PREFETCH  REQUESTED:    1585602  ISSUED:    1584096  USEFUL:     426377  USELESS:     273124
L1I USEFUL LOAD PREFETCHES:     426377 PREFETCH ISSUED TO LOWER LEVEL:     715810  ACCURACY: 59.5657
L1I TIMELY PREFETCHES:     426377 LATE PREFETCHES: 16301 DROPPED PREFETCHES: 162
L1I PREFETCHES SAME FILL-ORIGIN LEVEL: 715810 DIFFERENT FILL-ORIGIN LEVEL: 0
L1I AVERAGE MISS LATENCY: 1.04904e+06 cycles
L1I RQ	ACCESS:   14423134	FORWARD:          0	MERGED:    4614591	TO_CACHE:    9808543
L1I PQ	ACCESS:    1584096	FORWARD:          0	MERGED:      71958	TO_CACHE:    1512138

BTB TOTAL     ACCESS:    7750111  HIT:    6953063  MISS:     797048  HIT %:    89.7157  MISS %:    10.2843   MPKI: 15.941
BTB BRANCH_DIRECT_JUMP	ACCESS:     644555  HIT:     617941  MISS:      26614
BTB BRANCH_INDIRECT	ACCESS:     201946  HIT:     110721  MISS:      91225
BTB BRANCH_CONDITIONAL	ACCESS:    4875062  HIT:    4805966  MISS:      69096
BTB BRANCH_DIRECT_CALL	ACCESS:     564820  HIT:     520816  MISS:      44004
BTB BRANCH_INDIRECT_CALL	ACCESS:     445012  HIT:     287828  MISS:     157184
BTB BRANCH_RETURN	ACCESS:    1018716  HIT:     609791  MISS:     408925
BTB BRANCH_OTHER ACCESS:          0  HIT:          0  MISS:          0

L2C TOTAL     ACCESS:    1617876  HIT:    1323348  MISS:     294528  HIT %:    81.7954  MISS %:    18.2046   MPKI: 5.89056
L2C LOAD      ACCESS:     573528  HIT:     477761  MISS:      95767  HIT %:    83.3021  MISS %:    16.6979   MPKI: 1.91534
L2C DATA LOAD MPKI: 1.11482
L2C INSTRUCTION LOAD MPKI: 0.80052
L2C RFO       ACCESS:     131084  HIT:      50410  MISS:      80674  HIT %:    38.4563  MISS %:    61.5437   MPKI: 1.61348
L2C PREFETCH  ACCESS:     716580  HIT:     609783  MISS:     106797  HIT %:    85.0963  MISS %:    14.9037   MPKI: 2.13594
L2C DATA PREFETCH MPKI: 0.00464
L2C INSTRUCTION PREFETCH MPKI: 2.1313
L2C WRITEBACK ACCESS:     191943  HIT:     183268  MISS:       8675  HIT %:    95.4804  MISS %:    4.51957   MPKI: 0.1735
L2C LOAD TRANSLATION ACCESS:       3996  HIT:       1819  MISS:       2177  HIT %:    45.5205  MISS %:    54.4795   MPKI: 0.04354
L2C TRANSLATION FROM L1D PREFETCHER ACCESS:        745  HIT:        307  MISS:        438  HIT %:    41.2081  MISS %:    58.7919   MPKI: 0.00876
L2C PREFETCH  REQUESTED:          0  ISSUED:          0  USEFUL:       8975  USELESS:      97531
L2C USEFUL LOAD PREFETCHES:       8975 PREFETCH ISSUED TO LOWER LEVEL:     106797  ACCURACY: 8.40379
L2C TIMELY PREFETCHES:       8975 LATE PREFETCHES: 0 DROPPED PREFETCHES: 0
L2C PREFETCHES SAME FILL-ORIGIN LEVEL: 0 DIFFERENT FILL-ORIGIN LEVEL: 0
L2C AVERAGE MISS LATENCY: 83.1214 cycles
L2C RQ	ACCESS:     709368	FORWARD:          0	MERGED:          0	TO_CACHE:     709353
L2C WQ	ACCESS:     191943	FORWARD:         15	MERGED:          0	TO_CACHE:     191943
L2C PQ	ACCESS:     716580	FORWARD:          0	MERGED:          0	TO_CACHE:     716580

L2C Instructions Evicting Data 71287
L2C Translations Evicting Data 1378
L2C Data Evicting Data 69053
L2C Instructions Evicting Instructions 74065
L2C Translations Evicting Instructions 1205
L2C Data Evicting Instructions 66332
L2C Instructions Evicting Translations 1239
L2C Translations Evicting Translations 32
L2C Data Evicting Translations 1262
L2C Dense regions hint from L2: 0
PSCL5 TOTAL     ACCESS:       4471  HIT:       4471  MISS:          0  HIT %:        100  MISS %:          0   MPKI: 0
PSCL5 LOAD TRANSLATION ACCESS:       3756  HIT:       3756  MISS:          0  HIT %:        100  MISS %:          0   MPKI: 0
PSCL5 TRANSLATION FROM L1D PREFETCHER ACCESS:        715  HIT:        715  MISS:          0  HIT %:        100  MISS %:          0   MPKI: 0
PSCL5 PREFETCH  REQUESTED:          0  ISSUED:          0  USEFUL:          0  USELESS:          0
PSCL5 USEFUL LOAD PREFETCHES:          0 PREFETCH ISSUED TO LOWER LEVEL:          0  ACCURACY: -nan
PSCL5 TIMELY PREFETCHES:          0 LATE PREFETCHES: 0 DROPPED PREFETCHES: 0
PSCL5 PREFETCHES SAME FILL-ORIGIN LEVEL: 0 DIFFERENT FILL-ORIGIN LEVEL: 0

PSCL4 TOTAL     ACCESS:       4468  HIT:       4467  MISS:          1  HIT %:    99.9776  MISS %:  0.0223814   MPKI: 2e-05
PSCL4 LOAD TRANSLATION ACCESS:       3753  HIT:       3752  MISS:          1  HIT %:    99.9734  MISS %:  0.0266454   MPKI: 2e-05
PSCL4 TRANSLATION FROM L1D PREFETCHER ACCESS:        715  HIT:        715  MISS:          0  HIT %:        100  MISS %:          0   MPKI: 0
PSCL4 PREFETCH  REQUESTED:          0  ISSUED:          0  USEFUL:          0  USELESS:          0
PSCL4 USEFUL LOAD PREFETCHES:          0 PREFETCH ISSUED TO LOWER LEVEL:          0  ACCURACY: -nan
PSCL4 TIMELY PREFETCHES:          0 LATE PREFETCHES: 0 DROPPED PREFETCHES: 0
PSCL4 PREFETCHES SAME FILL-ORIGIN LEVEL: 0 DIFFERENT FILL-ORIGIN LEVEL: 0

PSCL3 TOTAL     ACCESS:       4260  HIT:       4240  MISS:         20  HIT %:    99.5305  MISS %:   0.469484   MPKI: 0.0004
PSCL3 LOAD TRANSLATION ACCESS:       3593  HIT:       3573  MISS:         20  HIT %:    99.4434  MISS %:   0.556638   MPKI: 0.0004
PSCL3 TRANSLATION FROM L1D PREFETCHER ACCESS:        667  HIT:        667  MISS:          0  HIT %:        100  MISS %:          0   MPKI: 0
PSCL3 PREFETCH  REQUESTED:          0  ISSUED:          0  USEFUL:          0  USELESS:          0
PSCL3 USEFUL LOAD PREFETCHES:          0 PREFETCH ISSUED TO LOWER LEVEL:          0  ACCURACY: -nan
PSCL3 TIMELY PREFETCHES:          0 LATE PREFETCHES: 0 DROPPED PREFETCHES: 0
PSCL3 PREFETCHES SAME FILL-ORIGIN LEVEL: 0 DIFFERENT FILL-ORIGIN LEVEL: 0

PSCL2 TOTAL     ACCESS:       4467  HIT:       4221  MISS:        246  HIT %:    94.4929  MISS %:    5.50705   MPKI: 0.00492
PSCL2 LOAD TRANSLATION ACCESS:       3781  HIT:       3535  MISS:        246  HIT %:    93.4938  MISS %:    6.50622   MPKI: 0.00492
PSCL2 TRANSLATION FROM L1D PREFETCHER ACCESS:        686  HIT:        686  MISS:          0  HIT %:        100  MISS %:          0   MPKI: 0
PSCL2 PREFETCH  REQUESTED:          0  ISSUED:          0  USEFUL:          0  USELESS:          0
PSCL2 USEFUL LOAD PREFETCHES:          0 PREFETCH ISSUED TO LOWER LEVEL:          0  ACCURACY: -nan
PSCL2 TIMELY PREFETCHES:          0 LATE PREFETCHES: 0 DROPPED PREFETCHES: 0
PSCL2 PREFETCHES SAME FILL-ORIGIN LEVEL: 0 DIFFERENT FILL-ORIGIN LEVEL: 0

LLC TOTAL     ACCESS:     377225  HIT:     271643  MISS:     105582  HIT %:    72.0109  MISS %:    27.9891   MPKI: 2.11164
LLC LOAD      ACCESS:      95767  HIT:      68142  MISS:      27625  HIT %:    71.1539  MISS %:    28.8461   MPKI: 0.5525
LLC RFO       ACCESS:      80674  HIT:      37134  MISS:      43540  HIT %:    46.0297  MISS %:    53.9703   MPKI: 0.8708
LLC PREFETCH  ACCESS:     106797  HIT:      76468  MISS:      30329  HIT %:    71.6013  MISS %:    28.3987   MPKI: 0.60658
LLC WRITEBACK ACCESS:      91372  HIT:      88323  MISS:       3049  HIT %:    96.6631  MISS %:    3.33691   MPKI: 0.06098
LLC LOAD TRANSLATION ACCESS:       2177  HIT:       1270  MISS:        907  HIT %:    58.3372  MISS %:    41.6628   MPKI: 0.01814
LLC TRANSLATION FROM L1D PREFETCHER ACCESS:        438  HIT:        306  MISS:        132  HIT %:     69.863  MISS %:     30.137   MPKI: 0.00264
LLC PREFETCH  REQUESTED:          0  ISSUED:          0  USEFUL:       2272  USELESS:      28192
LLC USEFUL LOAD PREFETCHES:       2272 PREFETCH ISSUED TO LOWER LEVEL:      30329  ACCURACY: 7.49118
LLC TIMELY PREFETCHES:       2272 LATE PREFETCHES: 0 DROPPED PREFETCHES: 0
LLC PREFETCHES SAME FILL-ORIGIN LEVEL: 0 DIFFERENT FILL-ORIGIN LEVEL: 0
LLC AVERAGE MISS LATENCY: 150.537 cycles
LLC RQ	ACCESS:     179056	FORWARD:          0	MERGED:          0	TO_CACHE:     179056
LLC WQ	ACCESS:      91372	FORWARD:          0	MERGED:          0	TO_CACHE:      91372
LLC PQ	ACCESS:     106797	FORWARD:          0	MERGED:          0	TO_CACHE:     106797

LLC Dense regions hint to LLC: 0

RAW hits: 1009042
Loads Generated: 14209317
Loads sent to L1D: 13200273
Stores Generated: 5238050
Stores sent to L1D: 5238055
Major fault: 0 Minor fault: 4055
Allocated PAGES: 4055
I-Shadow cache 408 bytes
Touched + WorthPF tables 6144 bytes 
MMA filter 174 bytes 
FNL filter 272 bytes 
TOTAL PREFETCHER STORAGE SIZE: 25174 bytes
CPU 0 L1I next line prefetcher final stats

stream: 
stream:times selected: 420992
stream:pref_filled: 52300
stream:pref_useful: 17838
stream:pref_late: 588
stream:misses: 4081
stream:misses_by_poll: 0

CS: 
CS:times selected: 23771
CS:pref_filled: 4975
CS:pref_useful: 3530
CS:pref_late: 35
CS:misses: 344
CS:misses_by_poll: 0

CPLX: 
CPLX:times selected: 393272
CPLX:pref_filled: 15680
CPLX:pref_useful: 3733
CPLX:pref_late: 78
CPLX:misses: 19261
CPLX:misses_by_poll: 0

NL_L1: 
NL:times selected: 3488
NL:pref_filled: 565
NL:pref_useful: 195
NL:pref_late: 5
NL:misses: 241
NL:misses_by_poll: 0

total selections: 841523
total_filled: 746
total_useful: 274
total_late: 745
total_polluted: 0
total_misses_after_warmup: 735
conflicts: 9
Degree Incremented Times: 0
Degree Decremented Times: 51784

L1 IP Table Write Accesses: 3210
L1 IP Table Read Accesses: 3201
L1 RST Write Accesses: 1387
L1 RST Read Accesses: 2774
L1 CSPT Write Accesses: 1387
L1 CSPT Read Accesses: 2718
L1 RR Filter Tag Write Accesses: 1333
L1 RR Filter Tag Read Accesses: 49404
L1 IP Table Tag Write Accesses: 3216
L1 IP Table Tag Read Accesses: 3216
L1 RST Tag Write Accesses: 0
L1 RST Tag Read Accesses: 12932
L1 RR Filter Write Accesses: 0
L1 RR Filter Read Accesses: 1587
test: 126727

DRAM Statistics
 CHANNEL 0
 RQ ROW_BUFFER_HIT:      25787  ROW_BUFFER_MISS:      76739
 DBUS_CONGESTED:        137
 WQ ROW_BUFFER_HIT:       7517  ROW_BUFFER_MISS:      35649  FULL:          0

 AVG_CONGESTED_CYCLE: 4
 All warmup complete: 2
Channel 0 Bank busy for read cycles: 0
Channel 0 Bank busy for write cycles: 0
Channel 0
Rank 0
0banks busy for read cycles: 71614844
0banks busy for write cycles: 16537
1banks busy for read cycles: 4899196
1banks busy for write cycles: 2159699
2banks busy for read cycles: 1312876
2banks busy for write cycles: 725041
3banks busy for read cycles: 485944
3banks busy for write cycles: 363313
4banks busy for read cycles: 282539
4banks busy for write cycles: 212275
5banks busy for read cycles: 179942
5banks busy for write cycles: 147745
6banks busy for read cycles: 169393
6banks busy for write cycles: 101827
7banks busy for read cycles: 71401
7banks busy for write cycles: 82621
8banks busy for read cycles: 35956
8banks busy for write cycles: 122723

CPU 0 Branch Prediction Accuracy: 94.1242% MPKI: 11.6089 Average ROB Occupancy at Mispredict: 34.5731
Branch types
NOT_BRANCH: 40121057 80.2421%
BRANCH_DIRECT_JUMP: 644555 1.28911%
BRANCH_INDIRECT: 201946 0.403892%
BRANCH_CONDITIONAL: 7003556 14.0071%
BRANCH_DIRECT_CALL: 564820 1.12964%
BRANCH_INDIRECT_CALL: 445012 0.890024%
BRANCH_RETURN: 1018716 2.03743%
BRANCH_OTHER: 0 0%

DRAM PAGES: 1048576
Allocated PAGES: 4055
