
*** ChampSim Multicore Out-of-Order Simulator ***

Warmup Instructions: 50000000
Simulation Instructions: 50000000
Number of CPUs: 1
LLC sets: 2048
LLC ways: 16
Off-chip DRAM Size: 4096 MB Channels: 1 Width: 64-bit Data Rate: 6400 MT/s
CPU 0 runs ../IPC-traces//client_003.champsimtrace.xz
.xz
NUM_OF_IPS_IN_CRITICAL_IP_TRAINING: 64
NUM_OF_CRITICAL_IP_TRAINING_TABLE_WAYS: 2
NUM_OF_CRITICAL_IP_TRAINING_TABLE_SETS: 32
WOBBLY_CRITICAL_IP_CACHE_SETS: 32
WOBBLY_CRITICAL_IP_CACHE_WAYS: 4
BTB has LRU replacement policy
ITLB has LRU replacement policy
DTLB has LRU replacement policy
STLB has LRU replacement policy
CPU 0 L1I next line prefetcher
L1I has LRU replacement policy
IP Table Entries: 256
L1D has LRU replacement policy
Initialize SRRIP state for L2C
Initialize DRRIP state for LLC
Heartbeat CPU 0 instructions: 10000000 cycles: 2805626 heartbeat IPC: 3.56427 cumulative IPC: 3.56427 (Simulation time: 0 hr 3 min 5 sec) 
Heartbeat CPU 0 instructions: 20000000 cycles: 5609462 heartbeat IPC: 3.56654 cumulative IPC: 3.5654 (Simulation time: 0 hr 5 min 37 sec) 
Heartbeat CPU 0 instructions: 30000003 cycles: 8419022 heartbeat IPC: 3.55928 cumulative IPC: 3.56336 (Simulation time: 0 hr 7 min 53 sec) 
Heartbeat CPU 0 instructions: 40000001 cycles: 11237068 heartbeat IPC: 3.54856 cumulative IPC: 3.55965 (Simulation time: 0 hr 9 min 53 sec) 
Heartbeat CPU 0 instructions: 50000002 cycles: 14058066 heartbeat IPC: 3.54485 cumulative IPC: 3.55668 (Simulation time: 0 hr 11 min 47 sec) 

Warmup complete CPU 0 instructions: 50000002 cycles: 14058066 (Simulation time: 0 hr 11 min 47 sec) 

Heartbeat CPU 0 instructions: 60000002 cycles: 27048020 heartbeat IPC: 0.769826 cumulative IPC: 0.769826 (Simulation time: 0 hr 14 min 8 sec) 
Heartbeat CPU 0 instructions: 70000001 cycles: 39644610 heartbeat IPC: 0.793866 cumulative IPC: 0.781661 (Simulation time: 0 hr 16 min 20 sec) 
Heartbeat CPU 0 instructions: 80000001 cycles: 53610060 heartbeat IPC: 0.716053 cumulative IPC: 0.758495 (Simulation time: 0 hr 18 min 30 sec) 
Heartbeat CPU 0 instructions: 90000000 cycles: 68157616 heartbeat IPC: 0.687401 cumulative IPC: 0.739378 (Simulation time: 0 hr 20 min 27 sec) 
Heartbeat CPU 0 instructions: 100000000 cycles: 88120924 heartbeat IPC: 0.500919 cumulative IPC: 0.675102 (Simulation time: 0 hr 23 min 8 sec) 
Finished CPU 0 instructions: 50000002 cycles: 74062860 cumulative IPC: 0.675102 (Simulation time: 0 hr 23 min 8 sec) 

ChampSim completed all CPUs

Region of Interest Statistics

CPU 0 cumulative IPC: 0.675102 instructions: 50000002 cycles: 74062860

CPU 0 Average Load ROB stall cycles: 1.82773e+07
CPU 0 Fraction of times ROB stalled by Loads: 36.341
CPU 0 Percentage of Load stall cycles in Total stall cycles: 2.67231e+08
Issued all: 39618602
Issued LT all: 34098292
rob_not_full_when_issued_lt_all: 17978574
Issued LT one: 27973245
rob_not_full_when_issued_lt_one: 13672740
 Total stall cycles: 61178672
 Total load stall cycles: 163488397585231
CPU 0 NUM of IPS identified critical: 0
CPU 0 Num of Load IPs stalling ROB: 26803
Threshold modification factor: 0
Max PIST entries: 64
Min PIST entries: 0
Avg PIST entries: 27.19
Trouble in retire width: 0.907197
MaC = Marked as critical.
lt_50_percent_before_Mac: 0
gt_90_percent_before_Mac: 0
gt_75_percent_before_Mac: 0
gt_50_percent_before_Mac: 0
stall_proportion_bin_same_before_after: 0
stall_proportion_bin_lower_before_after: 0
stall_proportion_bin_upper_before_after: 0
average_stall_proportion_before: -nan
average_stall_proportion_after: -nan
Critical IP stalls, total frequency: 0
Non-critical IP stalls, total frequency: 3250664
Total Freq all stalling IPs: 3250664
stat_90_percent_critical_ip_stalls_freq: 2925627
stat_90_percent_non_critical_ip_stalls_freq: 325037
Critical_IP_ROB_Stalls_Bucket_0: 0
Non-critical_IP_ROB_Stalls_Bucket_0: 1452234
Critical_IP_ROB_Stalls_Bucket_1: 0
Non-critical_IP_ROB_Stalls_Bucket_1: 660249
Critical_IP_ROB_Stalls_Bucket_2: 0
Non-critical_IP_ROB_Stalls_Bucket_2: 273286
Critical_IP_ROB_Stalls_Bucket_3: 0
Non-critical_IP_ROB_Stalls_Bucket_3: 91513
Critical_IP_ROB_Stalls_Bucket_4: 0
Non-critical_IP_ROB_Stalls_Bucket_4: 37114
Critical_IP_ROB_Stalls_Bucket_5: 0
Non-critical_IP_ROB_Stalls_Bucket_5: 20029
Critical_IP_ROB_Stalls_Bucket_6: 0
Non-critical_IP_ROB_Stalls_Bucket_6: 716239
0 => IPs accounting for >50 percent of stalls, 1 => 55, 2 => 60, 3 => 65 and so on till 90.
percent50: 50.0711 num IPs:  38
percent55: 55.0852 num IPs: 61
percent60: 60.05 num IPs: 95
percent65: 65.0425 num IPs: 152
percent70: 70.0399 num IPs: 247
percent75: 75.0179 num IPs: 393
percent80: 80.0147 num IPs: 632
percent85: 85.0062 num IPs: 1058
percent90: 90.0011 num IPs: 1842
Critical_ROB_Stalls_Percent_0_Bucket_0: 525775
Non-critical_ROB_Stalls_Percent_0_Bucket_0: 926459
Critical_ROB_Stalls_Percent_0_Bucket_1: 212877
Non-critical_ROB_Stalls_Percent_0_Bucket_1: 447372
Critical_ROB_Stalls_Percent_0_Bucket_2: 114799
Non-critical_ROB_Stalls_Percent_0_Bucket_2: 158487
Critical_ROB_Stalls_Percent_0_Bucket_3: 42235
Non-critical_ROB_Stalls_Percent_0_Bucket_3: 49278
Critical_ROB_Stalls_Percent_0_Bucket_4: 18526
Non-critical_ROB_Stalls_Percent_0_Bucket_4: 18588
Critical_ROB_Stalls_Percent_0_Bucket_5: 11013
Non-critical_ROB_Stalls_Percent_0_Bucket_5: 9016
Critical_ROB_Stalls_Percent_0_Bucket_6: 702417
Non-critical_ROB_Stalls_Percent_0_Bucket_6: 13822
Critical_ROB_Stalls_Percent_1_Bucket_0: 604511
Non-critical_ROB_Stalls_Percent_1_Bucket_0: 847723
Critical_ROB_Stalls_Percent_1_Bucket_1: 268683
Non-critical_ROB_Stalls_Percent_1_Bucket_1: 391566
Critical_ROB_Stalls_Percent_1_Bucket_2: 133162
Non-critical_ROB_Stalls_Percent_1_Bucket_2: 140124
Critical_ROB_Stalls_Percent_1_Bucket_3: 48425
Non-critical_ROB_Stalls_Percent_1_Bucket_3: 43088
Critical_ROB_Stalls_Percent_1_Bucket_4: 20936
Non-critical_ROB_Stalls_Percent_1_Bucket_4: 16178
Critical_ROB_Stalls_Percent_1_Bucket_5: 11866
Non-critical_ROB_Stalls_Percent_1_Bucket_5: 8163
Critical_ROB_Stalls_Percent_1_Bucket_6: 703053
Non-critical_ROB_Stalls_Percent_1_Bucket_6: 13186
Critical_ROB_Stalls_Percent_2_Bucket_0: 669715
Non-critical_ROB_Stalls_Percent_2_Bucket_0: 782519
Critical_ROB_Stalls_Percent_2_Bucket_1: 323249
Non-critical_ROB_Stalls_Percent_2_Bucket_1: 337000
Critical_ROB_Stalls_Percent_2_Bucket_2: 157872
Non-critical_ROB_Stalls_Percent_2_Bucket_2: 115414
Critical_ROB_Stalls_Percent_2_Bucket_3: 55374
Non-critical_ROB_Stalls_Percent_2_Bucket_3: 36139
Critical_ROB_Stalls_Percent_2_Bucket_4: 24074
Non-critical_ROB_Stalls_Percent_2_Bucket_4: 13040
Critical_ROB_Stalls_Percent_2_Bucket_5: 13872
Non-critical_ROB_Stalls_Percent_2_Bucket_5: 6157
Critical_ROB_Stalls_Percent_2_Bucket_6: 707867
Non-critical_ROB_Stalls_Percent_2_Bucket_6: 8372
Critical_ROB_Stalls_Percent_3_Bucket_0: 746288
Non-critical_ROB_Stalls_Percent_3_Bucket_0: 705946
Critical_ROB_Stalls_Percent_3_Bucket_1: 370338
Non-critical_ROB_Stalls_Percent_3_Bucket_1: 289911
Critical_ROB_Stalls_Percent_3_Bucket_2: 180990
Non-critical_ROB_Stalls_Percent_3_Bucket_2: 92296
Critical_ROB_Stalls_Percent_3_Bucket_3: 63973
Non-critical_ROB_Stalls_Percent_3_Bucket_3: 27540
Critical_ROB_Stalls_Percent_3_Bucket_4: 27071
Non-critical_ROB_Stalls_Percent_3_Bucket_4: 10043
Critical_ROB_Stalls_Percent_3_Bucket_5: 15642
Non-critical_ROB_Stalls_Percent_3_Bucket_5: 4387
Critical_ROB_Stalls_Percent_3_Bucket_6: 710011
Non-critical_ROB_Stalls_Percent_3_Bucket_6: 6228
Critical_ROB_Stalls_Percent_4_Bucket_0: 825368
Non-critical_ROB_Stalls_Percent_4_Bucket_0: 626866
Critical_ROB_Stalls_Percent_4_Bucket_1: 428422
Non-critical_ROB_Stalls_Percent_4_Bucket_1: 231827
Critical_ROB_Stalls_Percent_4_Bucket_2: 200381
Non-critical_ROB_Stalls_Percent_4_Bucket_2: 72905
Critical_ROB_Stalls_Percent_4_Bucket_3: 68092
Non-critical_ROB_Stalls_Percent_4_Bucket_3: 23421
Critical_ROB_Stalls_Percent_4_Bucket_4: 27995
Non-critical_ROB_Stalls_Percent_4_Bucket_4: 9119
Critical_ROB_Stalls_Percent_4_Bucket_5: 16032
Non-critical_ROB_Stalls_Percent_4_Bucket_5: 3997
Critical_ROB_Stalls_Percent_4_Bucket_6: 710474
Non-critical_ROB_Stalls_Percent_4_Bucket_6: 5765
Critical_ROB_Stalls_Percent_5_Bucket_0: 910702
Non-critical_ROB_Stalls_Percent_5_Bucket_0: 541532
Critical_ROB_Stalls_Percent_5_Bucket_1: 474042
Non-critical_ROB_Stalls_Percent_5_Bucket_1: 186207
Critical_ROB_Stalls_Percent_5_Bucket_2: 217523
Non-critical_ROB_Stalls_Percent_5_Bucket_2: 55763
Critical_ROB_Stalls_Percent_5_Bucket_3: 74847
Non-critical_ROB_Stalls_Percent_5_Bucket_3: 16666
Critical_ROB_Stalls_Percent_5_Bucket_4: 31543
Non-critical_ROB_Stalls_Percent_5_Bucket_4: 5571
Critical_ROB_Stalls_Percent_5_Bucket_5: 16742
Non-critical_ROB_Stalls_Percent_5_Bucket_5: 3287
Critical_ROB_Stalls_Percent_5_Bucket_6: 713180
Non-critical_ROB_Stalls_Percent_5_Bucket_6: 3059
Critical_ROB_Stalls_Percent_6_Bucket_0: 1006075
Non-critical_ROB_Stalls_Percent_6_Bucket_0: 446159
Critical_ROB_Stalls_Percent_6_Bucket_1: 521182
Non-critical_ROB_Stalls_Percent_6_Bucket_1: 139067
Critical_ROB_Stalls_Percent_6_Bucket_2: 230556
Non-critical_ROB_Stalls_Percent_6_Bucket_2: 42730
Critical_ROB_Stalls_Percent_6_Bucket_3: 77962
Non-critical_ROB_Stalls_Percent_6_Bucket_3: 13551
Critical_ROB_Stalls_Percent_6_Bucket_4: 33096
Non-critical_ROB_Stalls_Percent_6_Bucket_4: 4018
Critical_ROB_Stalls_Percent_6_Bucket_5: 17815
Non-critical_ROB_Stalls_Percent_6_Bucket_5: 2214
Critical_ROB_Stalls_Percent_6_Bucket_6: 714324
Non-critical_ROB_Stalls_Percent_6_Bucket_6: 1915
Critical_ROB_Stalls_Percent_7_Bucket_0: 1101760
Non-critical_ROB_Stalls_Percent_7_Bucket_0: 350474
Critical_ROB_Stalls_Percent_7_Bucket_1: 565255
Non-critical_ROB_Stalls_Percent_7_Bucket_1: 94994
Critical_ROB_Stalls_Percent_7_Bucket_2: 244543
Non-critical_ROB_Stalls_Percent_7_Bucket_2: 28743
Critical_ROB_Stalls_Percent_7_Bucket_3: 83565
Non-critical_ROB_Stalls_Percent_7_Bucket_3: 7948
Critical_ROB_Stalls_Percent_7_Bucket_4: 34790
Non-critical_ROB_Stalls_Percent_7_Bucket_4: 2324
Critical_ROB_Stalls_Percent_7_Bucket_5: 18441
Non-critical_ROB_Stalls_Percent_7_Bucket_5: 1588
Critical_ROB_Stalls_Percent_7_Bucket_6: 714910
Non-critical_ROB_Stalls_Percent_7_Bucket_6: 1329
Critical_ROB_Stalls_Percent_8_Bucket_0: 1204036
Non-critical_ROB_Stalls_Percent_8_Bucket_0: 248198
Critical_ROB_Stalls_Percent_8_Bucket_1: 605990
Non-critical_ROB_Stalls_Percent_8_Bucket_1: 54259
Critical_ROB_Stalls_Percent_8_Bucket_2: 258004
Non-critical_ROB_Stalls_Percent_8_Bucket_2: 15282
Critical_ROB_Stalls_Percent_8_Bucket_3: 86969
Non-critical_ROB_Stalls_Percent_8_Bucket_3: 4544
Critical_ROB_Stalls_Percent_8_Bucket_4: 35775
Non-critical_ROB_Stalls_Percent_8_Bucket_4: 1339
Critical_ROB_Stalls_Percent_8_Bucket_5: 19418
Non-critical_ROB_Stalls_Percent_8_Bucket_5: 611
Critical_ROB_Stalls_Percent_8_Bucket_6: 715435
Non-critical_ROB_Stalls_Percent_8_Bucket_6: 804
Average ROB occupancy Load Stall Begin: 116.254
Average ROB occupancy Load Stall End: 123.646
Min ROB occupancy Load Stall Begin: 1
Max ROB occupancy Load Stall Begin: 352
Min ROB occupancy Load Stall End: 1
Max ROB occupancy Load Stall End: 352
Average ROB occupancy Critical Load Stall Begin: -nan
Average ROB occupancy Critical Load Stall End: -nan
Min ROB occupancy Critical Load Stall Begin: 400
Max ROB occupancy Critical Load Stall Begin: 0
Min ROB occupancy Critical Load Stall End: 400
Max ROB occupancy Critical Load Stall End: 0
 ROB Load Stall Begin Bucket Count 0: 1665173
 ROB Load Stall End Bucket Count 0: 1452234
 ROB Critical Load Stall Begin Bucket Count 0: 0
 ROB Critical Load Stall End Bucket Count 0: 0
 ROB Load Stall Begin Bucket Count 1: 531941
 ROB Load Stall End Bucket Count 1: 660249
 ROB Critical Load Stall Begin Bucket Count 1: 0
 ROB Critical Load Stall End Bucket Count 1: 0
 ROB Load Stall Begin Bucket Count 2: 220249
 ROB Load Stall End Bucket Count 2: 273286
 ROB Critical Load Stall Begin Bucket Count 2: 0
 ROB Critical Load Stall End Bucket Count 2: 0
 ROB Load Stall Begin Bucket Count 3: 72445
 ROB Load Stall End Bucket Count 3: 91513
 ROB Critical Load Stall Begin Bucket Count 3: 0
 ROB Critical Load Stall End Bucket Count 3: 0
 ROB Load Stall Begin Bucket Count 4: 29657
 ROB Load Stall End Bucket Count 4: 37114
 ROB Critical Load Stall Begin Bucket Count 4: 0
 ROB Critical Load Stall End Bucket Count 4: 0
 ROB Load Stall Begin Bucket Count 5: 18889
 ROB Load Stall End Bucket Count 5: 20029
 ROB Critical Load Stall Begin Bucket Count 5: 0
 ROB Critical Load Stall End Bucket Count 5: 0
 ROB Load Stall Begin Bucket Count 6: 712310
 ROB Load Stall End Bucket Count 6: 716239
 ROB Critical Load Stall Begin Bucket Count 6: 0
 ROB Critical Load Stall End Bucket Count 6: 0
PIST Tag Read Accesses: 1914842
PIST Read Accesses: 957421
PIST Tag Write Accesses: 1914842
PIST Write Accesses: 957421
Criticality detector called times: 2054398
Max global_stall_cycles_count: 3629167
Threshold Modified: 0 times, factor: 0
Sturdy critical IP cache stats: 
 Unused entries: 0
CIC Tag Read Accesses: 0
CIC Read Accesses: 0
CIC Tag Write Accesses: 0
CIC Write Accesses: 0
Wobbly critical IP cache stats: 
 Unused entries: 85
CIC Tag Read Accesses: 158506756
CIC Read Accesses: 0
CIC Tag Write Accesses: 9159
CIC Write Accesses: 0
ITLB TOTAL     ACCESS:    9295668  HIT:    9217852  MISS:      77816  HIT %:    99.1629  MISS %:   0.837121   MPKI: 1.55632
ITLB LOAD TRANSLATION ACCESS:    8633274  HIT:    8596143  MISS:      37131  HIT %:    99.5699  MISS %:   0.430092   MPKI: 0.74262
ITLB TRANSLATION FROM L1D PREFETCHER ACCESS:     662394  HIT:     621709  MISS:      40685  HIT %:    93.8579  MISS %:    6.14211   MPKI: 0.8137
ITLB PREFETCH  REQUESTED:          0  ISSUED:          0  USEFUL:      31913  USELESS:       8773
ITLB USEFUL LOAD PREFETCHES:      31913 PREFETCH ISSUED TO LOWER LEVEL:          0  ACCURACY: inf
ITLB TIMELY PREFETCHES:      31913 LATE PREFETCHES: 164 DROPPED PREFETCHES: 375
ITLB PREFETCHES SAME FILL-ORIGIN LEVEL: 0 DIFFERENT FILL-ORIGIN LEVEL: 0
ITLB AVERAGE MISS LATENCY: 82813 cycles
ITLB RQ	ACCESS:   11669565	FORWARD:          0	MERGED:    2359910	TO_CACHE:    9309655

DTLB TOTAL     ACCESS:    9901925  HIT:    9801367  MISS:     100558  HIT %:    98.9845  MISS %:    1.01554   MPKI: 2.01116
DTLB LOAD TRANSLATION ACCESS:    9901925  HIT:    9801367  MISS:     100558  HIT %:    98.9845  MISS %:    1.01554   MPKI: 2.01116
DTLB PREFETCH  REQUESTED:          0  ISSUED:          0  USEFUL:          0  USELESS:          0
DTLB USEFUL LOAD PREFETCHES:          0 PREFETCH ISSUED TO LOWER LEVEL:          0  ACCURACY: -nan
DTLB TIMELY PREFETCHES:          0 LATE PREFETCHES: 0 DROPPED PREFETCHES: 0
DTLB PREFETCHES SAME FILL-ORIGIN LEVEL: 0 DIFFERENT FILL-ORIGIN LEVEL: 0
DTLB AVERAGE MISS LATENCY: 14.0919 cycles
DTLB RQ	ACCESS:   12782137	FORWARD:          0	MERGED:    2862450	TO_CACHE:    9919687

STLB TOTAL     ACCESS:     268941  HIT:     264343  MISS:       4598  HIT %:    98.2903  MISS %:    1.70967   MPKI: 0.09196
STLB LOAD TRANSLATION ACCESS:     137525  HIT:     133123  MISS:       4402  HIT %:    96.7991  MISS %:    3.20087   MPKI: 0.08804
STLB TRANSLATION FROM L1D PREFETCHER ACCESS:     131416  HIT:     131220  MISS:        196  HIT %:    99.8509  MISS %:   0.149145   MPKI: 0.00392
STLB PREFETCH  REQUESTED:          0  ISSUED:          0  USEFUL:        128  USELESS:         33
STLB USEFUL LOAD PREFETCHES:        128 PREFETCH ISSUED TO LOWER LEVEL:          0  ACCURACY: inf
STLB TIMELY PREFETCHES:        128 LATE PREFETCHES: 0 DROPPED PREFETCHES: 375
STLB PREFETCHES SAME FILL-ORIGIN LEVEL: 0 DIFFERENT FILL-ORIGIN LEVEL: 0
STLB AVERAGE MISS LATENCY: 133.77 cycles
STLB RQ	ACCESS:     283369	FORWARD:          0	MERGED:      14053	TO_CACHE:     269316

STLB Hit, L1D data hit: 0
STLB Hit, L2C data hit: 0
STLB Hit, LLC data hit: 0
STLB Hit, LLC data miss: 0
STLB STLB hints to L2: 0
L1D TOTAL     ACCESS:   12275063  HIT:   11857575  MISS:     417488  HIT %:    96.5989  MISS %:    3.40111   MPKI: 8.34976
L1D LOAD      ACCESS:    6226370  HIT:    6120972  MISS:     105398  HIT %:    98.3072  MISS %:    1.69277   MPKI: 2.10796
L1D RFO       ACCESS:    5953489  HIT:    5713904  MISS:     239585  HIT %:    95.9757  MISS %:    4.02428   MPKI: 4.7917
L1D PREFETCH  ACCESS:      95204  HIT:      22699  MISS:      72505  HIT %:    23.8425  MISS %:    76.1575   MPKI: 1.4501
L1D PREFETCH  REQUESTED:     209241  ISSUED:     209241  USEFUL:      63539  USELESS:       8958
L1D USEFUL LOAD PREFETCHES:      63539 PREFETCH ISSUED TO LOWER LEVEL:      80837  ACCURACY: 78.6014
L1D TIMELY PREFETCHES:      63539 LATE PREFETCHES: 8322 DROPPED PREFETCHES: 0
L1D PREFETCHES SAME FILL-ORIGIN LEVEL: 80837 DIFFERENT FILL-ORIGIN LEVEL: 0
L1D AVERAGE MISS LATENCY: 1.39436e+06 cycles
L1D RQ	ACCESS:    9776580	FORWARD:          0	MERGED:    3397641	TO_CACHE:    6249460
L1D WQ	ACCESS:    6907394	FORWARD:     129480	MERGED:     374717	TO_CACHE:    6532677
L1D PQ	ACCESS:     104621	FORWARD:          0	MERGED:          0	TO_CACHE:     104620

L1D UNIQUE REGIONS ACCESSED: 0
L1D REGIONS CONFLICTS: 0
L1D Cross Page Prefetch Requests: 0
L1D Same Page Prefetch Requests: 104621
L1D ROI Sum of L1D PQ occupancy: 1719902
L1D PREFETCHES PUSHED FROM L2C: 0
L1I TOTAL     ACCESS:   11581097  HIT:   10852389  MISS:     728708  HIT %:    93.7078  MISS %:    6.29222   MPKI: 14.5742
L1I LOAD      ACCESS:    9752356  HIT:    9573557  MISS:     178799  HIT %:    98.1666  MISS %:    1.83339   MPKI: 3.57598
L1I PREFETCH  ACCESS:    1828741  HIT:    1278832  MISS:     549909  HIT %:    69.9296  MISS %:    30.0704   MPKI: 10.9982
L1I PREFETCH  REQUESTED:    1995405  ISSUED:    1993654  USEFUL:     353156  USELESS:     196780
L1I USEFUL LOAD PREFETCHES:     353156 PREFETCH ISSUED TO LOWER LEVEL:     567712  ACCURACY: 62.2069
L1I TIMELY PREFETCHES:     353156 LATE PREFETCHES: 17803 DROPPED PREFETCHES: 629
L1I PREFETCHES SAME FILL-ORIGIN LEVEL: 567712 DIFFERENT FILL-ORIGIN LEVEL: 0
L1I AVERAGE MISS LATENCY: 971985 cycles
L1I RQ	ACCESS:   14255204	FORWARD:          0	MERGED:    4478532	TO_CACHE:    9776672
L1I PQ	ACCESS:    1993654	FORWARD:          0	MERGED:     100761	TO_CACHE:    1892893

BTB TOTAL     ACCESS:    7502677  HIT:    7071437  MISS:     431240  HIT %:    94.2522  MISS %:    5.74782   MPKI: 8.6248
BTB BRANCH_DIRECT_JUMP	ACCESS:     370859  HIT:     358934  MISS:      11925
BTB BRANCH_INDIRECT	ACCESS:      83252  HIT:      39140  MISS:      44112
BTB BRANCH_CONDITIONAL	ACCESS:    5399005  HIT:    5361920  MISS:      37085
BTB BRANCH_DIRECT_CALL	ACCESS:     722308  HIT:     695961  MISS:      26347
BTB BRANCH_INDIRECT_CALL	ACCESS:     101901  HIT:      81558  MISS:      20343
BTB BRANCH_RETURN	ACCESS:     825352  HIT:     533924  MISS:     291428
BTB BRANCH_OTHER ACCESS:          0  HIT:          0  MISS:          0

L2C TOTAL     ACCESS:    1561776  HIT:    1157264  MISS:     404512  HIT %:    74.0992  MISS %:    25.9008   MPKI: 8.09024
L2C LOAD      ACCESS:     258069  HIT:     199569  MISS:      58500  HIT %:    77.3316  MISS %:    22.6684   MPKI: 1.17
L2C DATA LOAD MPKI: 0.7792
L2C INSTRUCTION LOAD MPKI: 0.3908
L2C RFO       ACCESS:     239571  HIT:      28425  MISS:     211146  HIT %:     11.865  MISS %:     88.135   MPKI: 4.22292
L2C PREFETCH  ACCESS:     797029  HIT:     672104  MISS:     124925  HIT %:    84.3262  MISS %:    15.6738   MPKI: 2.4985
L2C DATA PREFETCH MPKI: 1.64544
L2C INSTRUCTION PREFETCH MPKI: 0.85306
L2C WRITEBACK ACCESS:     262022  HIT:     253639  MISS:       8383  HIT %:    96.8007  MISS %:    3.19935   MPKI: 0.16766
L2C LOAD TRANSLATION ACCESS:       4508  HIT:       3068  MISS:       1440  HIT %:    68.0568  MISS %:    31.9432   MPKI: 0.0288
L2C TRANSLATION FROM L1D PREFETCHER ACCESS:        577  HIT:        459  MISS:        118  HIT %:    79.5494  MISS %:    20.4506   MPKI: 0.00236
L2C PREFETCH  REQUESTED:     297284  ISSUED:     297284  USEFUL:       7549  USELESS:     118393
L2C USEFUL LOAD PREFETCHES:       7549 PREFETCH ISSUED TO LOWER LEVEL:     125153  ACCURACY: 6.03182
L2C TIMELY PREFETCHES:       7549 LATE PREFETCHES: 228 DROPPED PREFETCHES: 0
L2C PREFETCHES SAME FILL-ORIGIN LEVEL: 40504 DIFFERENT FILL-ORIGIN LEVEL: 0
L2C AVERAGE MISS LATENCY: 138.753 cycles
L2C RQ	ACCESS:     502732	FORWARD:          0	MERGED:          0	TO_CACHE:     502725
L2C WQ	ACCESS:     262022	FORWARD:          7	MERGED:          0	TO_CACHE:     262022
L2C PQ	ACCESS:     945833	FORWARD:          0	MERGED:     131685	TO_CACHE:     814148

L2C Instructions Evicting Data 38504
L2C Translations Evicting Data 1165
L2C Data Evicting Data 292563
L2C Instructions Evicting Instructions 23291
L2C Translations Evicting Instructions 383
L2C Data Evicting Instructions 38812
L2C Instructions Evicting Translations 398
L2C Translations Evicting Translations 10
L2C Data Evicting Translations 1003
L2C Dense regions hint from L2: 0
PSCL5 TOTAL     ACCESS:       4973  HIT:       4973  MISS:          0  HIT %:        100  MISS %:          0   MPKI: 0
PSCL5 LOAD TRANSLATION ACCESS:       4402  HIT:       4402  MISS:          0  HIT %:        100  MISS %:          0   MPKI: 0
PSCL5 TRANSLATION FROM L1D PREFETCHER ACCESS:        571  HIT:        571  MISS:          0  HIT %:        100  MISS %:          0   MPKI: 0
PSCL5 PREFETCH  REQUESTED:          0  ISSUED:          0  USEFUL:          0  USELESS:          0
PSCL5 USEFUL LOAD PREFETCHES:          0 PREFETCH ISSUED TO LOWER LEVEL:          0  ACCURACY: -nan
PSCL5 TIMELY PREFETCHES:          0 LATE PREFETCHES: 0 DROPPED PREFETCHES: 0
PSCL5 PREFETCHES SAME FILL-ORIGIN LEVEL: 0 DIFFERENT FILL-ORIGIN LEVEL: 0

PSCL4 TOTAL     ACCESS:       4973  HIT:       4973  MISS:          0  HIT %:        100  MISS %:          0   MPKI: 0
PSCL4 LOAD TRANSLATION ACCESS:       4402  HIT:       4402  MISS:          0  HIT %:        100  MISS %:          0   MPKI: 0
PSCL4 TRANSLATION FROM L1D PREFETCHER ACCESS:        571  HIT:        571  MISS:          0  HIT %:        100  MISS %:          0   MPKI: 0
PSCL4 PREFETCH  REQUESTED:          0  ISSUED:          0  USEFUL:          0  USELESS:          0
PSCL4 USEFUL LOAD PREFETCHES:          0 PREFETCH ISSUED TO LOWER LEVEL:          0  ACCURACY: -nan
PSCL4 TIMELY PREFETCHES:          0 LATE PREFETCHES: 0 DROPPED PREFETCHES: 0
PSCL4 PREFETCHES SAME FILL-ORIGIN LEVEL: 0 DIFFERENT FILL-ORIGIN LEVEL: 0

PSCL3 TOTAL     ACCESS:       4940  HIT:       4937  MISS:          3  HIT %:    99.9393  MISS %:  0.0607287   MPKI: 6e-05
PSCL3 LOAD TRANSLATION ACCESS:       4371  HIT:       4368  MISS:          3  HIT %:    99.9314  MISS %:  0.0686342   MPKI: 6e-05
PSCL3 TRANSLATION FROM L1D PREFETCHER ACCESS:        569  HIT:        569  MISS:          0  HIT %:        100  MISS %:          0   MPKI: 0
PSCL3 PREFETCH  REQUESTED:          0  ISSUED:          0  USEFUL:          0  USELESS:          0
PSCL3 USEFUL LOAD PREFETCHES:          0 PREFETCH ISSUED TO LOWER LEVEL:          0  ACCURACY: -nan
PSCL3 TIMELY PREFETCHES:          0 LATE PREFETCHES: 0 DROPPED PREFETCHES: 0
PSCL3 PREFETCHES SAME FILL-ORIGIN LEVEL: 0 DIFFERENT FILL-ORIGIN LEVEL: 0

PSCL2 TOTAL     ACCESS:       4973  HIT:       4851  MISS:        122  HIT %:    97.5468  MISS %:    2.45325   MPKI: 0.00244
PSCL2 LOAD TRANSLATION ACCESS:       4407  HIT:       4285  MISS:        122  HIT %:    97.2317  MISS %:    2.76832   MPKI: 0.00244
PSCL2 TRANSLATION FROM L1D PREFETCHER ACCESS:        566  HIT:        566  MISS:          0  HIT %:        100  MISS %:          0   MPKI: 0
PSCL2 PREFETCH  REQUESTED:          0  ISSUED:          0  USEFUL:          0  USELESS:          0
PSCL2 USEFUL LOAD PREFETCHES:          0 PREFETCH ISSUED TO LOWER LEVEL:          0  ACCURACY: -nan
PSCL2 TIMELY PREFETCHES:          0 LATE PREFETCHES: 0 DROPPED PREFETCHES: 0
PSCL2 PREFETCHES SAME FILL-ORIGIN LEVEL: 0 DIFFERENT FILL-ORIGIN LEVEL: 0

LLC TOTAL     ACCESS:     615356  HIT:     346174  MISS:     269182  HIT %:    56.2559  MISS %:    43.7441   MPKI: 5.38364
LLC LOAD      ACCESS:      58272  HIT:      41348  MISS:      16924  HIT %:    70.9569  MISS %:    29.0431   MPKI: 0.33848
LLC RFO       ACCESS:     211146  HIT:      35443  MISS:     175703  HIT %:     16.786  MISS %:     83.214   MPKI: 3.51406
LLC PREFETCH  ACCESS:     125153  HIT:      54167  MISS:      70986  HIT %:    43.2806  MISS %:    56.7194   MPKI: 1.41972
LLC WRITEBACK ACCESS:     219227  HIT:     214716  MISS:       4511  HIT %:    97.9423  MISS %:    2.05768   MPKI: 0.09022
LLC LOAD TRANSLATION ACCESS:       1440  HIT:        441  MISS:        999  HIT %:     30.625  MISS %:     69.375   MPKI: 0.01998
LLC TRANSLATION FROM L1D PREFETCHER ACCESS:        118  HIT:         59  MISS:         59  HIT %:         50  MISS %:         50   MPKI: 0.00118
LLC PREFETCH  REQUESTED:          0  ISSUED:          0  USEFUL:        981  USELESS:      67720
LLC USEFUL LOAD PREFETCHES:        981 PREFETCH ISSUED TO LOWER LEVEL:      70986  ACCURACY: 1.38196
LLC TIMELY PREFETCHES:        981 LATE PREFETCHES: 0 DROPPED PREFETCHES: 0
LLC PREFETCHES SAME FILL-ORIGIN LEVEL: 0 DIFFERENT FILL-ORIGIN LEVEL: 0
LLC AVERAGE MISS LATENCY: 164.207 cycles
LLC RQ	ACCESS:     270976	FORWARD:          0	MERGED:          0	TO_CACHE:     270976
LLC WQ	ACCESS:     219227	FORWARD:          0	MERGED:          0	TO_CACHE:     219227
LLC PQ	ACCESS:     125153	FORWARD:          0	MERGED:          0	TO_CACHE:     125153

LLC Dense regions hint to LLC: 0

RAW hits: 1279696
Loads Generated: 11056274
Loads sent to L1D: 9776580
Stores Generated: 6907390
Stores sent to L1D: 6907394
Major fault: 0 Minor fault: 5106
Allocated PAGES: 5106
I-Shadow cache 408 bytes
Touched + WorthPF tables 6144 bytes 
MMA filter 174 bytes 
FNL filter 272 bytes 
TOTAL PREFETCHER STORAGE SIZE: 25174 bytes
CPU 0 L1I next line prefetcher final stats

stream: 
stream:times selected: 154215
stream:pref_filled: 8986
stream:pref_useful: 2600
stream:pref_late: 402
stream:misses: 1030
stream:misses_by_poll: 0

CS: 
CS:times selected: 76378
CS:pref_filled: 61352
CS:pref_useful: 60497
CS:pref_late: 7600
CS:misses: 18594
CS:misses_by_poll: 209

CPLX: 
CPLX:times selected: 77549
CPLX:pref_filled: 2081
CPLX:pref_useful: 416
CPLX:pref_late: 11
CPLX:misses: 6759
CPLX:misses_by_poll: 9

NL_L1: 
NL:times selected: 1338
NL:pref_filled: 68
NL:pref_useful: 11
NL:pref_late: 1
NL:misses: 62
NL:misses_by_poll: 0

total selections: 309480
total_filled: 72505
total_useful: 63539
total_late: 8322
total_polluted: 218
total_misses_after_warmup: 27164
conflicts: 739
Degree Incremented Times: 4562
Degree Decremented Times: 775

L1 IP Table Write Accesses: 1256059
L1 IP Table Read Accesses: 1255320
L1 RST Write Accesses: 154219
L1 RST Read Accesses: 308429
L1 CSPT Write Accesses: 154219
L1 CSPT Read Accesses: 237047
L1 RR Filter Tag Write Accesses: 104621
L1 RR Filter Tag Read Accesses: 11690813
L1 IP Table Tag Write Accesses: 1256817
L1 IP Table Tag Read Accesses: 1256817
L1 RST Tag Write Accesses: 56
L1 RST Tag Read Accesses: 1447029
L1 RR Filter Write Accesses: 0
L1 RR Filter Read Accesses: 406645
test: 15342
L2 IP Table Read Accesses: 309371
L2 IP Table Write Accesses: 528371
L2 IP Table Tag Read Accesses: 268975
L2 IP Table Tag Write Accesses: 268975

DRAM Statistics
 CHANNEL 0
 RQ ROW_BUFFER_HIT:     105810  ROW_BUFFER_MISS:     158861
 DBUS_CONGESTED:        143
 WQ ROW_BUFFER_HIT:      39120  ROW_BUFFER_MISS:     136476  FULL:          0

 AVG_CONGESTED_CYCLE: 2
 All warmup complete: 2
Channel 0 Bank busy for read cycles: 0
Channel 0 Bank busy for write cycles: 0
Channel 0
Rank 0
0banks busy for read cycles: 51744452
0banks busy for write cycles: 33712
1banks busy for read cycles: 7677922
1banks busy for write cycles: 4067659
2banks busy for read cycles: 2679341
2banks busy for write cycles: 1256762
3banks busy for read cycles: 1079158
3banks busy for write cycles: 371350
4banks busy for read cycles: 437366
4banks busy for write cycles: 279657
5banks busy for read cycles: 262724
5banks busy for write cycles: 229608
6banks busy for read cycles: 311614
6banks busy for write cycles: 242288
7banks busy for read cycles: 367124
7banks busy for write cycles: 385699
8banks busy for read cycles: 721600
8banks busy for write cycles: 1914825

CPU 0 Branch Prediction Accuracy: 98.6631% MPKI: 2.66884 Average ROB Occupancy at Mispredict: 41.8699
Branch types
NOT_BRANCH: 40018632 80.0373%
BRANCH_DIRECT_JUMP: 370859 0.741718%
BRANCH_INDIRECT: 83252 0.166504%
BRANCH_CONDITIONAL: 7877415 15.7548%
BRANCH_DIRECT_CALL: 722308 1.44462%
BRANCH_INDIRECT_CALL: 101901 0.203802%
BRANCH_RETURN: 825352 1.6507%
BRANCH_OTHER: 0 0%

DRAM PAGES: 1048576
Allocated PAGES: 5106
