
*** ChampSim Multicore Out-of-Order Simulator ***

Warmup Instructions: 50000000
Simulation Instructions: 50000000
Number of CPUs: 1
LLC sets: 2048
LLC ways: 16
Off-chip DRAM Size: 4096 MB Channels: 1 Width: 64-bit Data Rate: 6400 MT/s
CPU 0 runs ../IPC-traces//client_001.champsimtrace.xz
.xz
NUM_OF_IPS_IN_CRITICAL_IP_TRAINING: 64
NUM_OF_CRITICAL_IP_TRAINING_TABLE_WAYS: 2
NUM_OF_CRITICAL_IP_TRAINING_TABLE_SETS: 32
WOBBLY_CRITICAL_IP_CACHE_SETS: 32
WOBBLY_CRITICAL_IP_CACHE_WAYS: 4
BTB has LRU replacement policy
ITLB has LRU replacement policy
DTLB has LRU replacement policy
STLB has LRU replacement policy
CPU 0 L1I next line prefetcher
L1I has LRU replacement policy
IP Table Entries: 64
L1D has LRU replacement policy
Initialize SRRIP state for L2C
Initialize DRRIP state for LLC
Heartbeat CPU 0 instructions: 10000003 cycles: 2872458 heartbeat IPC: 3.48134 cumulative IPC: 3.48134 (Simulation time: 0 hr 2 min 57 sec) 
Heartbeat CPU 0 instructions: 20000001 cycles: 5809112 heartbeat IPC: 3.40524 cumulative IPC: 3.44287 (Simulation time: 0 hr 5 min 26 sec) 
Heartbeat CPU 0 instructions: 30000001 cycles: 8654132 heartbeat IPC: 3.51491 cumulative IPC: 3.46655 (Simulation time: 0 hr 7 min 46 sec) 
Heartbeat CPU 0 instructions: 40000001 cycles: 11710771 heartbeat IPC: 3.27157 cumulative IPC: 3.41566 (Simulation time: 0 hr 10 min 8 sec) 
Heartbeat CPU 0 instructions: 50000003 cycles: 14529471 heartbeat IPC: 3.54774 cumulative IPC: 3.44128 (Simulation time: 0 hr 12 min 2 sec) 

Warmup complete CPU 0 instructions: 50000003 cycles: 14529471 (Simulation time: 0 hr 12 min 2 sec) 

% increase in all ip prefetch 333.624
% increase in all ip prefetch 5.40047
% increase in all ip prefetch 81.4291
% increase in all ip prefetch 2.58933
Heartbeat CPU 0 instructions: 60000000 cycles: 30179779 heartbeat IPC: 0.638965 cumulative IPC: 0.638965 (Simulation time: 0 hr 14 min 48 sec) 
Heartbeat CPU 0 instructions: 70000000 cycles: 42674042 heartbeat IPC: 0.800367 cumulative IPC: 0.710617 (Simulation time: 0 hr 17 min 11 sec) 
Heartbeat CPU 0 instructions: 80000002 cycles: 59578256 heartbeat IPC: 0.591569 cumulative IPC: 0.665945 (Simulation time: 0 hr 20 min 3 sec) 
Heartbeat CPU 0 instructions: 90000001 cycles: 71639340 heartbeat IPC: 0.829113 cumulative IPC: 0.700404 (Simulation time: 0 hr 22 min 20 sec) 
Heartbeat CPU 0 instructions: 100000002 cycles: 87746253 heartbeat IPC: 0.620852 cumulative IPC: 0.682904 (Simulation time: 0 hr 24 min 44 sec) 
Finished CPU 0 instructions: 50000003 cycles: 73216783 cumulative IPC: 0.682904 (Simulation time: 0 hr 24 min 44 sec) 

ChampSim completed all CPUs

Region of Interest Statistics

CPU 0 cumulative IPC: 0.682904 instructions: 50000003 cycles: 73216783

CPU 0 Average Load ROB stall cycles: 2.16983e+07
CPU 0 Fraction of times ROB stalled by Loads: 43.2147
CPU 0 Percentage of Load stall cycles in Total stall cycles: 2.53068e+08
Issued all: 29068454
Issued LT all: 22938320
rob_not_full_when_issued_lt_all: 19904949
Issued LT one: 18611996
rob_not_full_when_issued_lt_one: 15903651
critical_ip_candidate_identification_operations: 6115420
critical_ip_candidate_identification_operation_per_cycle: 0.0835248
 Total stall cycles: 60667090
 Total load stall cycles: 153529282640628
Unique Load IPs: 10875
CPU 0 NUM of IPS identified critical: 187
CPU 0 Num of Load IPs stalling ROB: 8321
Threshold modification factor: -3
Max PIST entries: 64
Min PIST entries: 0
Avg PIST entries: 31.98
Trouble in retire width: 0.915169
MaC = Marked as critical.
lt_50_percent_before_Mac: 130
gt_90_percent_before_Mac: 16
gt_75_percent_before_Mac: 14
gt_50_percent_before_Mac: 27
stall_proportion_bin_same_before_after: 0
stall_proportion_bin_lower_before_after: 0
stall_proportion_bin_upper_before_after: 0
average_stall_proportion_before: 0.0554648
average_stall_proportion_after: 0.0627265
Critical IP stalls, total frequency: 1193902
Non-critical IP stalls, total frequency: 1863808
Total Freq all stalling IPs: 3057710
Critical_IP_Detector_Accuracy_70: 0.486631
Critical_IP_Detector_Accuracy_80: 0.673797
Critical_IP_Detector_Accuracy_90: 0.834225
Critical_IP_Detector_Coverage_70: 0.291667
Critical_IP_Detector_Coverage_80: 0.251497
Critical_IP_Detector_Coverage_90: 0.167024
stat_90_percent_critical_ip_stalls_freq: 2752044
stat_90_percent_non_critical_ip_stalls_freq: 305666
AVERAGE_ROB_Occupancy_90_Percent_Critical_IP_Stalls: 93.7824
AVERAGE_ROB_Occupancy_90_Percent_Non_Critical_IP_Stalls: 70.6609
Critical_IP_ROB_Stalls_Bucket_0: 309918
Non-critical_IP_ROB_Stalls_Bucket_0: 1007406
Critical_IP_ROB_Stalls_Bucket_1: 242411
Non-critical_IP_ROB_Stalls_Bucket_1: 497165
Critical_IP_ROB_Stalls_Bucket_2: 231404
Non-critical_IP_ROB_Stalls_Bucket_2: 195900
Critical_IP_ROB_Stalls_Bucket_3: 161744
Non-critical_IP_ROB_Stalls_Bucket_3: 82860
Critical_IP_ROB_Stalls_Bucket_4: 71749
Non-critical_IP_ROB_Stalls_Bucket_4: 40964
Critical_IP_ROB_Stalls_Bucket_5: 38195
Non-critical_IP_ROB_Stalls_Bucket_5: 21201
Critical_IP_ROB_Stalls_Bucket_6: 138481
Non-critical_IP_ROB_Stalls_Bucket_6: 18312
0 => IPs accounting for >50 percent of stalls, 1 => 55, 2 => 60, 3 => 65 and so on till 90.
percent50: 50.1151 num IPs:  112
percent55: 55.0468 num IPs: 146
percent60: 60.0927 num IPs: 190
percent65: 65.0737 num IPs: 245
percent70: 70.0422 num IPs: 312
percent75: 75.0536 num IPs: 396
percent80: 80.0082 num IPs: 501
percent85: 85.0232 num IPs: 659
percent90: 90.0034 num IPs: 934
Critical_ROB_Stalls_Percent_0_Bucket_0: 537741
Non-critical_ROB_Stalls_Percent_0_Bucket_0: 779583
Critical_ROB_Stalls_Percent_0_Bucket_1: 315655
Non-critical_ROB_Stalls_Percent_0_Bucket_1: 423921
Critical_ROB_Stalls_Percent_0_Bucket_2: 262340
Non-critical_ROB_Stalls_Percent_0_Bucket_2: 164964
Critical_ROB_Stalls_Percent_0_Bucket_3: 168073
Non-critical_ROB_Stalls_Percent_0_Bucket_3: 76531
Critical_ROB_Stalls_Percent_0_Bucket_4: 75892
Non-critical_ROB_Stalls_Percent_0_Bucket_4: 36821
Critical_ROB_Stalls_Percent_0_Bucket_5: 40154
Non-critical_ROB_Stalls_Percent_0_Bucket_5: 19242
Critical_ROB_Stalls_Percent_0_Bucket_6: 132520
Non-critical_ROB_Stalls_Percent_0_Bucket_6: 24273
Critical_ROB_Stalls_Percent_1_Bucket_0: 612697
Non-critical_ROB_Stalls_Percent_1_Bucket_0: 704627
Critical_ROB_Stalls_Percent_1_Bucket_1: 353564
Non-critical_ROB_Stalls_Percent_1_Bucket_1: 386012
Critical_ROB_Stalls_Percent_1_Bucket_2: 281836
Non-critical_ROB_Stalls_Percent_1_Bucket_2: 145468
Critical_ROB_Stalls_Percent_1_Bucket_3: 177607
Non-critical_ROB_Stalls_Percent_1_Bucket_3: 66997
Critical_ROB_Stalls_Percent_1_Bucket_4: 80601
Non-critical_ROB_Stalls_Percent_1_Bucket_4: 32112
Critical_ROB_Stalls_Percent_1_Bucket_5: 42510
Non-critical_ROB_Stalls_Percent_1_Bucket_5: 16886
Critical_ROB_Stalls_Percent_1_Bucket_6: 134356
Non-critical_ROB_Stalls_Percent_1_Bucket_6: 22437
Critical_ROB_Stalls_Percent_2_Bucket_0: 689361
Non-critical_ROB_Stalls_Percent_2_Bucket_0: 627963
Critical_ROB_Stalls_Percent_2_Bucket_1: 393467
Non-critical_ROB_Stalls_Percent_2_Bucket_1: 346109
Critical_ROB_Stalls_Percent_2_Bucket_2: 299468
Non-critical_ROB_Stalls_Percent_2_Bucket_2: 127836
Critical_ROB_Stalls_Percent_2_Bucket_3: 188636
Non-critical_ROB_Stalls_Percent_2_Bucket_3: 55968
Critical_ROB_Stalls_Percent_2_Bucket_4: 85661
Non-critical_ROB_Stalls_Percent_2_Bucket_4: 27052
Critical_ROB_Stalls_Percent_2_Bucket_5: 44968
Non-critical_ROB_Stalls_Percent_2_Bucket_5: 14428
Critical_ROB_Stalls_Percent_2_Bucket_6: 135899
Non-critical_ROB_Stalls_Percent_2_Bucket_6: 20894
Critical_ROB_Stalls_Percent_3_Bucket_0: 770950
Non-critical_ROB_Stalls_Percent_3_Bucket_0: 546374
Critical_ROB_Stalls_Percent_3_Bucket_1: 434699
Non-critical_ROB_Stalls_Percent_3_Bucket_1: 304877
Critical_ROB_Stalls_Percent_3_Bucket_2: 313395
Non-critical_ROB_Stalls_Percent_3_Bucket_2: 113909
Critical_ROB_Stalls_Percent_3_Bucket_3: 195930
Non-critical_ROB_Stalls_Percent_3_Bucket_3: 48674
Critical_ROB_Stalls_Percent_3_Bucket_4: 88627
Non-critical_ROB_Stalls_Percent_3_Bucket_4: 24086
Critical_ROB_Stalls_Percent_3_Bucket_5: 47586
Non-critical_ROB_Stalls_Percent_3_Bucket_5: 11810
Critical_ROB_Stalls_Percent_3_Bucket_6: 138577
Non-critical_ROB_Stalls_Percent_3_Bucket_6: 18216
Critical_ROB_Stalls_Percent_4_Bucket_0: 837126
Non-critical_ROB_Stalls_Percent_4_Bucket_0: 480198
Critical_ROB_Stalls_Percent_4_Bucket_1: 489174
Non-critical_ROB_Stalls_Percent_4_Bucket_1: 250402
Critical_ROB_Stalls_Percent_4_Bucket_2: 334397
Non-critical_ROB_Stalls_Percent_4_Bucket_2: 92907
Critical_ROB_Stalls_Percent_4_Bucket_3: 201031
Non-critical_ROB_Stalls_Percent_4_Bucket_3: 43573
Critical_ROB_Stalls_Percent_4_Bucket_4: 90836
Non-critical_ROB_Stalls_Percent_4_Bucket_4: 21877
Critical_ROB_Stalls_Percent_4_Bucket_5: 48633
Non-critical_ROB_Stalls_Percent_4_Bucket_5: 10763
Critical_ROB_Stalls_Percent_4_Bucket_6: 140492
Non-critical_ROB_Stalls_Percent_4_Bucket_6: 16301
Critical_ROB_Stalls_Percent_5_Bucket_0: 917508
Non-critical_ROB_Stalls_Percent_5_Bucket_0: 399816
Critical_ROB_Stalls_Percent_5_Bucket_1: 539682
Non-critical_ROB_Stalls_Percent_5_Bucket_1: 199894
Critical_ROB_Stalls_Percent_5_Bucket_2: 345777
Non-critical_ROB_Stalls_Percent_5_Bucket_2: 81527
Critical_ROB_Stalls_Percent_5_Bucket_3: 206064
Non-critical_ROB_Stalls_Percent_5_Bucket_3: 38540
Critical_ROB_Stalls_Percent_5_Bucket_4: 93462
Non-critical_ROB_Stalls_Percent_5_Bucket_4: 19251
Critical_ROB_Stalls_Percent_5_Bucket_5: 49751
Non-critical_ROB_Stalls_Percent_5_Bucket_5: 9645
Critical_ROB_Stalls_Percent_5_Bucket_6: 142677
Non-critical_ROB_Stalls_Percent_5_Bucket_6: 14116
Critical_ROB_Stalls_Percent_6_Bucket_0: 991569
Non-critical_ROB_Stalls_Percent_6_Bucket_0: 325755
Critical_ROB_Stalls_Percent_6_Bucket_1: 579610
Non-critical_ROB_Stalls_Percent_6_Bucket_1: 159966
Critical_ROB_Stalls_Percent_6_Bucket_2: 363685
Non-critical_ROB_Stalls_Percent_6_Bucket_2: 63619
Critical_ROB_Stalls_Percent_6_Bucket_3: 215196
Non-critical_ROB_Stalls_Percent_6_Bucket_3: 29408
Critical_ROB_Stalls_Percent_6_Bucket_4: 98899
Non-critical_ROB_Stalls_Percent_6_Bucket_4: 13814
Critical_ROB_Stalls_Percent_6_Bucket_5: 51792
Non-critical_ROB_Stalls_Percent_6_Bucket_5: 7604
Critical_ROB_Stalls_Percent_6_Bucket_6: 145669
Non-critical_ROB_Stalls_Percent_6_Bucket_6: 11124
Critical_ROB_Stalls_Percent_7_Bucket_0: 1074915
Non-critical_ROB_Stalls_Percent_7_Bucket_0: 242409
Critical_ROB_Stalls_Percent_7_Bucket_1: 621715
Non-critical_ROB_Stalls_Percent_7_Bucket_1: 117861
Critical_ROB_Stalls_Percent_7_Bucket_2: 377714
Non-critical_ROB_Stalls_Percent_7_Bucket_2: 49590
Critical_ROB_Stalls_Percent_7_Bucket_3: 221872
Non-critical_ROB_Stalls_Percent_7_Bucket_3: 22732
Critical_ROB_Stalls_Percent_7_Bucket_4: 101862
Non-critical_ROB_Stalls_Percent_7_Bucket_4: 10851
Critical_ROB_Stalls_Percent_7_Bucket_5: 53611
Non-critical_ROB_Stalls_Percent_7_Bucket_5: 5785
Critical_ROB_Stalls_Percent_7_Bucket_6: 148073
Non-critical_ROB_Stalls_Percent_7_Bucket_6: 8720
Critical_ROB_Stalls_Percent_8_Bucket_0: 1158386
Non-critical_ROB_Stalls_Percent_8_Bucket_0: 158938
Critical_ROB_Stalls_Percent_8_Bucket_1: 659301
Non-critical_ROB_Stalls_Percent_8_Bucket_1: 80275
Critical_ROB_Stalls_Percent_8_Bucket_2: 394074
Non-critical_ROB_Stalls_Percent_8_Bucket_2: 33230
Critical_ROB_Stalls_Percent_8_Bucket_3: 229311
Non-critical_ROB_Stalls_Percent_8_Bucket_3: 15293
Critical_ROB_Stalls_Percent_8_Bucket_4: 105142
Non-critical_ROB_Stalls_Percent_8_Bucket_4: 7571
Critical_ROB_Stalls_Percent_8_Bucket_5: 55532
Non-critical_ROB_Stalls_Percent_8_Bucket_5: 3864
Critical_ROB_Stalls_Percent_8_Bucket_6: 150298
Non-critical_ROB_Stalls_Percent_8_Bucket_6: 6495
Average ROB occupancy Load Stall Begin: 81.6538
Average ROB occupancy Load Stall End: 91.4711
Min ROB occupancy Load Stall Begin: 1
Max ROB occupancy Load Stall Begin: 352
Min ROB occupancy Load Stall End: 1
Max ROB occupancy Load Stall End: 352
Average ROB occupancy Critical Load Stall Begin: 133.257
Average ROB occupancy Critical Load Stall End: 141.871
Min ROB occupancy Critical Load Stall Begin: 2
Max ROB occupancy Critical Load Stall Begin: 352
Min ROB occupancy Critical Load Stall End: 2
Max ROB occupancy Critical Load Stall End: 352
 ROB Load Stall Begin Bucket Count 0: 1586607
 ROB Load Stall End Bucket Count 0: 1317324
 ROB Critical Load Stall Begin Bucket Count 0: 267362
 ROB Critical Load Stall End Bucket Count 0: 218348
 ROB Load Stall Begin Bucket Count 1: 599661
 ROB Load Stall End Bucket Count 1: 739576
 ROB Critical Load Stall Begin Bucket Count 1: 176408
 ROB Critical Load Stall End Bucket Count 1: 185737
 ROB Load Stall Begin Bucket Count 2: 372291
 ROB Load Stall End Bucket Count 2: 427304
 ROB Critical Load Stall Begin Bucket Count 2: 191240
 ROB Critical Load Stall End Bucket Count 2: 198095
 ROB Load Stall Begin Bucket Count 3: 206603
 ROB Load Stall End Bucket Count 3: 244604
 ROB Critical Load Stall Begin Bucket Count 3: 127156
 ROB Critical Load Stall End Bucket Count 3: 144440
 ROB Load Stall Begin Bucket Count 4: 94519
 ROB Load Stall End Bucket Count 4: 112713
 ROB Critical Load Stall Begin Bucket Count 4: 54441
 ROB Critical Load Stall End Bucket Count 4: 62116
 ROB Load Stall Begin Bucket Count 5: 51113
 ROB Load Stall End Bucket Count 5: 59396
 ROB Critical Load Stall Begin Bucket Count 5: 31824
 ROB Critical Load Stall End Bucket Count 5: 34572
 ROB Load Stall Begin Bucket Count 6: 146916
 ROB Load Stall End Bucket Count 6: 156793
 ROB Critical Load Stall Begin Bucket Count 6: 126073
 ROB Critical Load Stall End Bucket Count 6: 131196
PIST Tag Read Accesses: 3393994
PIST Read Accesses: 1696997
PIST Tag Write Accesses: 3393994
PIST Write Accesses: 1696997
Criticality detector called times: 2086193
Max global_stall_cycles_count: 5053884
Threshold Modified: 3 times, factor: -3
Sturdy critical IP cache stats: 
 Unused entries: 0
CIC Tag Read Accesses: 0
CIC Read Accesses: 0
CIC Tag Write Accesses: 0
CIC Write Accesses: 0
Wobbly critical IP cache stats: 
 Unused entries: 13
CIC Tag Read Accesses: 81238270
CIC Read Accesses: 0
CIC Tag Write Accesses: 327316
CIC Write Accesses: 0
ITLB TOTAL     ACCESS:    8239319  HIT:    8148179  MISS:      91140  HIT %:    98.8938  MISS %:    1.10616   MPKI: 1.8228
ITLB LOAD TRANSLATION ACCESS:    7754720  HIT:    7748800  MISS:       5920  HIT %:    99.9237  MISS %:  0.0763406   MPKI: 0.1184
ITLB TRANSLATION FROM L1D PREFETCHER ACCESS:     484599  HIT:     399379  MISS:      85220  HIT %:    82.4143  MISS %:    17.5857   MPKI: 1.7044
ITLBprefetch_cycle_count: 0 prefetches_per_prefetch_cycle: -nan
ITLB PREFETCH  REQUESTED:          0  ISSUED:          0  USEFUL:      63103  USELESS:      22110
ITLB USEFUL LOAD PREFETCHES:      63103 PREFETCH ISSUED TO LOWER LEVEL:          0  ACCURACY: inf
ITLB TIMELY PREFETCHES:      63103 LATE PREFETCHES: 31 DROPPED PREFETCHES: 2
ITLB PREFETCHES SAME FILL-ORIGIN LEVEL: 0 DIFFERENT FILL-ORIGIN LEVEL: 0
ITLB AVERAGE MISS LATENCY: 18761.7 cycles
ITLB RQ	ACCESS:   10789066	FORWARD:          0	MERGED:    2545977	TO_CACHE:    8243089

DTLB TOTAL     ACCESS:   11119656  HIT:   10856567  MISS:     263089  HIT %:     97.634  MISS %:    2.36598   MPKI: 5.26178
DTLB LOAD TRANSLATION ACCESS:   11119656  HIT:   10856567  MISS:     263089  HIT %:     97.634  MISS %:    2.36598   MPKI: 5.26178
DTLBprefetch_cycle_count: 0 prefetches_per_prefetch_cycle: -nan
DTLB PREFETCH  REQUESTED:          0  ISSUED:          0  USEFUL:          0  USELESS:          0
DTLB USEFUL LOAD PREFETCHES:          0 PREFETCH ISSUED TO LOWER LEVEL:          0  ACCURACY: -nan
DTLB TIMELY PREFETCHES:          0 LATE PREFETCHES: 0 DROPPED PREFETCHES: 0
DTLB PREFETCHES SAME FILL-ORIGIN LEVEL: 0 DIFFERENT FILL-ORIGIN LEVEL: 0
DTLB AVERAGE MISS LATENCY: 10.6113 cycles
DTLB RQ	ACCESS:   13252489	FORWARD:          0	MERGED:    2120924	TO_CACHE:   11131565

STLB TOTAL     ACCESS:     564421  HIT:     560302  MISS:       4119  HIT %:    99.2702  MISS %:   0.729774   MPKI: 0.08238
STLB LOAD TRANSLATION ACCESS:     268978  HIT:     265288  MISS:       3690  HIT %:    98.6281  MISS %:    1.37186   MPKI: 0.0738
STLB TRANSLATION FROM L1D PREFETCHER ACCESS:     295443  HIT:     295014  MISS:        429  HIT %:    99.8548  MISS %:   0.145206   MPKI: 0.00858
STLBprefetch_cycle_count: 0 prefetches_per_prefetch_cycle: -nan
STLB PREFETCH  REQUESTED:          0  ISSUED:          0  USEFUL:        365  USELESS:         54
STLB USEFUL LOAD PREFETCHES:        365 PREFETCH ISSUED TO LOWER LEVEL:          0  ACCURACY: inf
STLB TIMELY PREFETCHES:        365 LATE PREFETCHES: 0 DROPPED PREFETCHES: 2
STLB PREFETCHES SAME FILL-ORIGIN LEVEL: 0 DIFFERENT FILL-ORIGIN LEVEL: 0
STLB AVERAGE MISS LATENCY: 134.909 cycles
STLB RQ	ACCESS:     614582	FORWARD:          0	MERGED:      50159	TO_CACHE:     564423

STLB Hit, L1D data hit: 0
STLB Hit, L2C data hit: 0
STLB Hit, LLC data hit: 0
STLB Hit, LLC data miss: 0
STLB STLB hints to L2: 0
L1D TOTAL     ACCESS:   13356596  HIT:   12845697  MISS:     510899  HIT %:    96.1749  MISS %:    3.82507   MPKI: 10.218
L1D LOAD      ACCESS:    9073021  HIT:    8730547  MISS:     342474  HIT %:    96.2254  MISS %:    3.77464   MPKI: 6.84948
L1D RFO       ACCESS:    4031442  HIT:    3974340  MISS:      57102  HIT %:    98.5836  MISS %:    1.41642   MPKI: 1.14204
L1D PREFETCH  ACCESS:     252133  HIT:     140810  MISS:     111323  HIT %:    55.8475  MISS %:    44.1525   MPKI: 2.22646
L1Dprefetch_cycle_count: 214063 prefetches_per_prefetch_cycle: 2.43271
L1D PREFETCH  REQUESTED:     520759  ISSUED:     520753  USEFUL:      41093  USELESS:      70244
L1D USEFUL LOAD PREFETCHES:      41093 PREFETCH ISSUED TO LOWER LEVEL:     115650  ACCURACY: 35.5322
L1D TIMELY PREFETCHES:      41093 LATE PREFETCHES: 3712 DROPPED PREFETCHES: 0
L1D PREFETCHES SAME FILL-ORIGIN LEVEL: 115650 DIFFERENT FILL-ORIGIN LEVEL: 0
L1D AVERAGE MISS LATENCY: 468937 cycles
L1D RQ	ACCESS:   13265167	FORWARD:          0	MERGED:    4078613	TO_CACHE:    9126415
L1D WQ	ACCESS:    4203145	FORWARD:      60190	MERGED:      77071	TO_CACHE:    4126074
L1D PQ	ACCESS:     260402	FORWARD:          0	MERGED:          0	TO_CACHE:     260351

L1D UNIQUE REGIONS ACCESSED: 0
L1D REGIONS CONFLICTS: 0
L1D Cross Page Prefetch Requests: 0
L1D Same Page Prefetch Requests: 281116
L1D ROI Sum of L1D PQ occupancy: 3401945
L1D PREFETCHES PUSHED FROM L2C: 0
L1I TOTAL     ACCESS:   10779569  HIT:   10318945  MISS:     460624  HIT %:    95.7269  MISS %:    4.27312   MPKI: 9.21248
L1I LOAD      ACCESS:    9465739  HIT:    9453297  MISS:      12442  HIT %:    99.8686  MISS %:   0.131442   MPKI: 0.24884
L1I PREFETCH  ACCESS:    1313830  HIT:     865648  MISS:     448182  HIT %:    65.8874  MISS %:    34.1126   MPKI: 8.96364
L1Iprefetch_cycle_count: 0 prefetches_per_prefetch_cycle: inf
L1I PREFETCH  REQUESTED:    1341883  ISSUED:    1338636  USEFUL:     316262  USELESS:     131892
L1I USEFUL LOAD PREFETCHES:     316262 PREFETCH ISSUED TO LOWER LEVEL:     450717  ACCURACY: 70.1686
L1I TIMELY PREFETCHES:     316262 LATE PREFETCHES: 2535 DROPPED PREFETCHES: 2
L1I PREFETCHES SAME FILL-ORIGIN LEVEL: 450717 DIFFERENT FILL-ORIGIN LEVEL: 0
L1I AVERAGE MISS LATENCY: 275794 cycles
L1I RQ	ACCESS:   13831494	FORWARD:          0	MERGED:    4362927	TO_CACHE:    9468567
L1I PQ	ACCESS:    1338636	FORWARD:          0	MERGED:      18137	TO_CACHE:    1320499

BTB TOTAL     ACCESS:    6247436  HIT:    5990705  MISS:     256731  HIT %:    95.8906  MISS %:    4.10938   MPKI: 5.13462
BTB BRANCH_DIRECT_JUMP	ACCESS:     455616  HIT:     454213  MISS:       1403
BTB BRANCH_INDIRECT	ACCESS:      20390  HIT:      13969  MISS:       6421
BTB BRANCH_CONDITIONAL	ACCESS:    4324523  HIT:    4321097  MISS:       3426
BTB BRANCH_DIRECT_CALL	ACCESS:     494532  HIT:     492733  MISS:       1799
BTB BRANCH_INDIRECT_CALL	ACCESS:     228815  HIT:     173167  MISS:      55648
BTB BRANCH_RETURN	ACCESS:     723560  HIT:     535526  MISS:     188034
BTB BRANCH_OTHER ACCESS:          0  HIT:          0  MISS:          0

L2C TOTAL     ACCESS:    1314749  HIT:    1036765  MISS:     277984  HIT %:    78.8565  MISS %:    21.1435   MPKI: 5.55968
L2C LOAD      ACCESS:     348663  HIT:     178809  MISS:     169854  HIT %:    51.2842  MISS %:    48.7158   MPKI: 3.39708
L2C DATA LOAD MPKI: 3.3384
L2C INSTRUCTION LOAD MPKI: 0.05868
L2C RFO       ACCESS:      56486  HIT:      18622  MISS:      37864  HIT %:    32.9675  MISS %:    67.0325   MPKI: 0.75728
L2C PREFETCH  ACCESS:     748986  HIT:     682892  MISS:      66094  HIT %:    91.1755  MISS %:    8.82446   MPKI: 1.32188
L2C DATA PREFETCH MPKI: 1.02102
L2C INSTRUCTION PREFETCH MPKI: 0.30086
L2C WRITEBACK ACCESS:     156229  HIT:     153927  MISS:       2302  HIT %:    98.5265  MISS %:    1.47348   MPKI: 0.04604
L2C LOAD TRANSLATION ACCESS:       3897  HIT:       2324  MISS:       1573  HIT %:    59.6356  MISS %:    40.3644   MPKI: 0.03146
L2C TRANSLATION FROM L1D PREFETCHER ACCESS:        488  HIT:        191  MISS:        297  HIT %:    39.1393  MISS %:    60.8607   MPKI: 0.00594
L2Cprefetch_cycle_count: 434582 prefetches_per_prefetch_cycle: 1.00086
L2C PREFETCH  REQUESTED:     434954  ISSUED:     434954  USEFUL:      12072  USELESS:      52171
L2C USEFUL LOAD PREFETCHES:      12072 PREFETCH ISSUED TO LOWER LEVEL:      66630  ACCURACY: 18.118
L2C TIMELY PREFETCHES:      12072 LATE PREFETCHES: 536 DROPPED PREFETCHES: 0
L2C PREFETCHES SAME FILL-ORIGIN LEVEL: 15743 DIFFERENT FILL-ORIGIN LEVEL: 0
L2C AVERAGE MISS LATENCY: 119.156 cycles
L2C RQ	ACCESS:     409540	FORWARD:          0	MERGED:          0	TO_CACHE:     409533
L2C WQ	ACCESS:     156229	FORWARD:          7	MERGED:          0	TO_CACHE:     156229
L2C PQ	ACCESS:    1001321	FORWARD:          0	MERGED:     250141	TO_CACHE:     751180

L2C Instructions Evicting Data 15967
L2C Translations Evicting Data 1646
L2C Data Evicting Data 240149
L2C Instructions Evicting Instructions 1824
L2C Translations Evicting Instructions 202
L2C Data Evicting Instructions 14162
L2C Instructions Evicting Translations 186
L2C Translations Evicting Translations 22
L2C Data Evicting Translations 1524
L2C Dense regions hint from L2: 0
PSCL5 TOTAL     ACCESS:       4121  HIT:       4121  MISS:          0  HIT %:        100  MISS %:          0   MPKI: 0
PSCL5 LOAD TRANSLATION ACCESS:       3690  HIT:       3690  MISS:          0  HIT %:        100  MISS %:          0   MPKI: 0
PSCL5 TRANSLATION FROM L1D PREFETCHER ACCESS:        431  HIT:        431  MISS:          0  HIT %:        100  MISS %:          0   MPKI: 0
PSCL5prefetch_cycle_count: 0 prefetches_per_prefetch_cycle: -nan
PSCL5 PREFETCH  REQUESTED:          0  ISSUED:          0  USEFUL:          0  USELESS:          0
PSCL5 USEFUL LOAD PREFETCHES:          0 PREFETCH ISSUED TO LOWER LEVEL:          0  ACCURACY: -nan
PSCL5 TIMELY PREFETCHES:          0 LATE PREFETCHES: 0 DROPPED PREFETCHES: 0
PSCL5 PREFETCHES SAME FILL-ORIGIN LEVEL: 0 DIFFERENT FILL-ORIGIN LEVEL: 0

PSCL4 TOTAL     ACCESS:       4054  HIT:       4050  MISS:          4  HIT %:    99.9013  MISS %:   0.098668   MPKI: 8e-05
PSCL4 LOAD TRANSLATION ACCESS:       3628  HIT:       3624  MISS:          4  HIT %:    99.8897  MISS %:   0.110254   MPKI: 8e-05
PSCL4 TRANSLATION FROM L1D PREFETCHER ACCESS:        426  HIT:        426  MISS:          0  HIT %:        100  MISS %:          0   MPKI: 0
PSCL4prefetch_cycle_count: 0 prefetches_per_prefetch_cycle: -nan
PSCL4 PREFETCH  REQUESTED:          0  ISSUED:          0  USEFUL:          0  USELESS:          0
PSCL4 USEFUL LOAD PREFETCHES:          0 PREFETCH ISSUED TO LOWER LEVEL:          0  ACCURACY: -nan
PSCL4 TIMELY PREFETCHES:          0 LATE PREFETCHES: 0 DROPPED PREFETCHES: 0
PSCL4 PREFETCHES SAME FILL-ORIGIN LEVEL: 0 DIFFERENT FILL-ORIGIN LEVEL: 0

PSCL3 TOTAL     ACCESS:       4053  HIT:       4042  MISS:         11  HIT %:    99.7286  MISS %:   0.271404   MPKI: 0.00022
PSCL3 LOAD TRANSLATION ACCESS:       3627  HIT:       3616  MISS:         11  HIT %:    99.6967  MISS %:   0.303281   MPKI: 0.00022
PSCL3 TRANSLATION FROM L1D PREFETCHER ACCESS:        426  HIT:        426  MISS:          0  HIT %:        100  MISS %:          0   MPKI: 0
PSCL3prefetch_cycle_count: 0 prefetches_per_prefetch_cycle: -nan
PSCL3 PREFETCH  REQUESTED:          0  ISSUED:          0  USEFUL:          0  USELESS:          0
PSCL3 USEFUL LOAD PREFETCHES:          0 PREFETCH ISSUED TO LOWER LEVEL:          0  ACCURACY: -nan
PSCL3 TIMELY PREFETCHES:          0 LATE PREFETCHES: 0 DROPPED PREFETCHES: 0
PSCL3 PREFETCHES SAME FILL-ORIGIN LEVEL: 0 DIFFERENT FILL-ORIGIN LEVEL: 0

PSCL2 TOTAL     ACCESS:       4121  HIT:       3867  MISS:        254  HIT %:    93.8364  MISS %:    6.16355   MPKI: 0.00508
PSCL2 LOAD TRANSLATION ACCESS:       3743  HIT:       3489  MISS:        254  HIT %:     93.214  MISS %:      6.786   MPKI: 0.00508
PSCL2 TRANSLATION FROM L1D PREFETCHER ACCESS:        378  HIT:        378  MISS:          0  HIT %:        100  MISS %:          0   MPKI: 0
PSCL2prefetch_cycle_count: 0 prefetches_per_prefetch_cycle: -nan
PSCL2 PREFETCH  REQUESTED:          0  ISSUED:          0  USEFUL:          0  USELESS:          0
PSCL2 USEFUL LOAD PREFETCHES:          0 PREFETCH ISSUED TO LOWER LEVEL:          0  ACCURACY: -nan
PSCL2 TIMELY PREFETCHES:          0 LATE PREFETCHES: 0 DROPPED PREFETCHES: 0
PSCL2 PREFETCHES SAME FILL-ORIGIN LEVEL: 0 DIFFERENT FILL-ORIGIN LEVEL: 0

LLC TOTAL     ACCESS:     374548  HIT:     221677  MISS:     152871  HIT %:    59.1852  MISS %:    40.8148   MPKI: 3.05742
LLC LOAD      ACCESS:     169319  HIT:      84432  MISS:      84887  HIT %:    49.8656  MISS %:    50.1344   MPKI: 1.69774
LLC RFO       ACCESS:      37863  HIT:       5890  MISS:      31973  HIT %:    15.5561  MISS %:    84.4439   MPKI: 0.63946
LLC PREFETCH  ACCESS:      66630  HIT:      37820  MISS:      28810  HIT %:    56.7612  MISS %:    43.2388   MPKI: 0.5762
LLC WRITEBACK ACCESS:      98866  HIT:      92976  MISS:       5890  HIT %:    94.0424  MISS %:    5.95756   MPKI: 0.1178
LLC LOAD TRANSLATION ACCESS:       1573  HIT:        491  MISS:       1082  HIT %:    31.2142  MISS %:    68.7858   MPKI: 0.02164
LLC TRANSLATION FROM L1D PREFETCHER ACCESS:        297  HIT:         68  MISS:        229  HIT %:    22.8956  MISS %:    77.1044   MPKI: 0.00458
LLCprefetch_cycle_count: 0 prefetches_per_prefetch_cycle: -nan
LLC PREFETCH  REQUESTED:          0  ISSUED:          0  USEFUL:       5089  USELESS:      22623
LLC USEFUL LOAD PREFETCHES:       5089 PREFETCH ISSUED TO LOWER LEVEL:      28810  ACCURACY: 17.664
LLC TIMELY PREFETCHES:       5089 LATE PREFETCHES: 0 DROPPED PREFETCHES: 0
LLC PREFETCHES SAME FILL-ORIGIN LEVEL: 0 DIFFERENT FILL-ORIGIN LEVEL: 0
LLC AVERAGE MISS LATENCY: 162.443 cycles
LLC RQ	ACCESS:     209051	FORWARD:          0	MERGED:          0	TO_CACHE:     209051
LLC WQ	ACCESS:      98866	FORWARD:          0	MERGED:          0	TO_CACHE:      98866
LLC PQ	ACCESS:      66630	FORWARD:          0	MERGED:          0	TO_CACHE:      66630

LLC Dense regions hint to LLC: 0

RAW hits: 956840
Loads Generated: 14222007
Loads sent to L1D: 13265167
Stores Generated: 4203149
Stores sent to L1D: 4203145
Major fault: 0 Minor fault: 3508
Allocated PAGES: 3508
I-Shadow cache 408 bytes
Touched + WorthPF tables 6144 bytes 
MMA filter 174 bytes 
FNL filter 272 bytes 
TOTAL PREFETCHER STORAGE SIZE: 25174 bytes
CPU 0 L1I next line prefetcher final stats

total_pref_operate_instances_l1: 2197261
dynamic_config_counter_instances_1: 1885752
dynamic_config_counter_instances_2: 9907
dynamic_config_counter_instances_3: 7949
dynamic_config_counter_instances_4: 4489
dynamic_config_counter_instances_5: 289164
stream: 
stream:times selected: 392502
stream:pref_filled: 41884
stream:pref_useful: 8344
stream:pref_late: 1152
stream:misses: 4395
stream:misses_by_poll: 0

CS: 
CS:times selected: 58709
CS:pref_filled: 20067
CS:pref_useful: 15039
CS:pref_late: 339
CS:misses: 4520
CS:misses_by_poll: 34

CPLX: 
CPLX:times selected: 331429
CPLX:pref_filled: 29935
CPLX:pref_useful: 11855
CPLX:pref_late: 1024
CPLX:misses: 47654
CPLX:misses_by_poll: 50

NL_L1: 
NL:times selected: 93280
NL:pref_filled: 32067
NL:pref_useful: 8137
NL:pref_late: 1064
NL:misses: 28941
NL:misses_by_poll: 98

total selections: 875920
total_filled: 111323
total_useful: 41093
total_late: 4090
total_polluted: 182
total_misses_after_warmup: 126331
conflicts: 351031
Degree Incremented Times: 50
Degree Decremented Times: 14065

L1 IP Table Write Accesses: 1639297
L1 IP Table Read Accesses: 1288266
L1 RST Write Accesses: 370857
L1 RST Read Accesses: 741714
L1 CSPT Write Accesses: 370857
L1 CSPT Read Accesses: 681356
L1 RR Filter Tag Write Accesses: 260408
L1 RR Filter Tag Read Accesses: 11679740
L1 IP Table Tag Write Accesses: 2197261
L1 IP Table Tag Read Accesses: 2197261
L1 RST Tag Write Accesses: 0
L1 RST Tag Read Accesses: 3335781
L1 RR Filter Write Accesses: 0
L1 RR Filter Read Accesses: 410291
test: 120011
total_pref_operate_instances_l2: 647227
dynamic_config_counter_instances_l2_1: 638871
dynamic_config_counter_instances_l2_2: 4124
dynamic_config_counter_instances_l2_3: 4232
dynamic_config_counter_instances_l2_4: 0
dynamic_config_counter_instances_l2_5: 0
L2 IP Table Read Accesses: 850619
L2 IP Table Write Accesses: 1191062
L2 IP Table Tag Read Accesses: 647227
L2 IP Table Tag Write Accesses: 647227

DRAM Statistics
 CHANNEL 0
 RQ ROW_BUFFER_HIT:      37077  ROW_BUFFER_MISS:     109901
 DBUS_CONGESTED:         50
 WQ ROW_BUFFER_HIT:      13102  ROW_BUFFER_MISS:      63995  FULL:          0

 AVG_CONGESTED_CYCLE: 4
 All warmup complete: 2
Channel 0 Bank busy for read cycles: 0
Channel 0 Bank busy for write cycles: 0
Channel 0
Rank 0
0banks busy for read cycles: 54076191
0banks busy for write cycles: 30991
1banks busy for read cycles: 8268875
1banks busy for write cycles: 4284951
2banks busy for read cycles: 2221797
2banks busy for write cycles: 1419239
3banks busy for read cycles: 699720
3banks busy for write cycles: 578007
4banks busy for read cycles: 235650
4banks busy for write cycles: 278042
5banks busy for read cycles: 132610
5banks busy for write cycles: 166353
6banks busy for read cycles: 96204
6banks busy for write cycles: 108438
7banks busy for read cycles: 81522
7banks busy for write cycles: 107369
8banks busy for read cycles: 108996
8banks busy for write cycles: 321829

CPU 0 Branch Prediction Accuracy: 97.9037% MPKI: 3.63418 Average ROB Occupancy at Mispredict: 63.6113
Branch types
NOT_BRANCH: 41331406 82.6628%
BRANCH_DIRECT_JUMP: 455616 0.911232%
BRANCH_INDIRECT: 20390 0.04078%
BRANCH_CONDITIONAL: 6745375 13.4907%
BRANCH_DIRECT_CALL: 494532 0.989064%
BRANCH_INDIRECT_CALL: 228815 0.45763%
BRANCH_RETURN: 723560 1.44712%
BRANCH_OTHER: 0 0%

DRAM PAGES: 1048576
Allocated PAGES: 3508
