
*** ChampSim Multicore Out-of-Order Simulator ***

Warmup Instructions: 50000000
Simulation Instructions: 50000000
Number of CPUs: 1
LLC sets: 2048
LLC ways: 16
Off-chip DRAM Size: 4096 MB Channels: 1 Width: 64-bit Data Rate: 6400 MT/s
CPU 0 runs ../IPC-traces//client_005.champsimtrace.xz
.xz
NUM_OF_IPS_IN_CRITICAL_IP_TRAINING: 64
NUM_OF_CRITICAL_IP_TRAINING_TABLE_WAYS: 2
NUM_OF_CRITICAL_IP_TRAINING_TABLE_SETS: 32
WOBBLY_CRITICAL_IP_CACHE_SETS: 32
WOBBLY_CRITICAL_IP_CACHE_WAYS: 4
BTB has LRU replacement policy
ITLB has LRU replacement policy
DTLB has LRU replacement policy
STLB has LRU replacement policy
CPU 0 L1I next line prefetcher
L1I has LRU replacement policy
IP Table Entries: 64
L1D has LRU replacement policy
Initialize SRRIP state for L2C
Initialize DRRIP state for LLC
Heartbeat CPU 0 instructions: 10000001 cycles: 2800269 heartbeat IPC: 3.57109 cumulative IPC: 3.57109 (Simulation time: 0 hr 2 min 3 sec) 
Heartbeat CPU 0 instructions: 20000002 cycles: 5595849 heartbeat IPC: 3.57708 cumulative IPC: 3.57408 (Simulation time: 0 hr 4 min 9 sec) 
Heartbeat CPU 0 instructions: 30000001 cycles: 8444534 heartbeat IPC: 3.51039 cumulative IPC: 3.55259 (Simulation time: 0 hr 6 min 21 sec) 
Heartbeat CPU 0 instructions: 40000000 cycles: 11291065 heartbeat IPC: 3.51305 cumulative IPC: 3.54262 (Simulation time: 0 hr 8 min 30 sec) 
Heartbeat CPU 0 instructions: 50000001 cycles: 14064171 heartbeat IPC: 3.60607 cumulative IPC: 3.55513 (Simulation time: 0 hr 10 min 28 sec) 

Warmup complete CPU 0 instructions: 50000001 cycles: 14064171 (Simulation time: 0 hr 10 min 28 sec) 

% increase in all ip prefetch 398.403
% increase in all ip prefetch 9.12115
% increase in all ip prefetch 10.9768
% increase in all ip prefetch 4.14243
% increase in all ip prefetch -6.07512
Heartbeat CPU 0 instructions: 60000001 cycles: 29904676 heartbeat IPC: 0.631293 cumulative IPC: 0.631293 (Simulation time: 0 hr 12 min 56 sec) 
Heartbeat CPU 0 instructions: 70000002 cycles: 44408599 heartbeat IPC: 0.689469 cumulative IPC: 0.6591 (Simulation time: 0 hr 15 min 27 sec) 
Heartbeat CPU 0 instructions: 80000003 cycles: 57520804 heartbeat IPC: 0.762648 cumulative IPC: 0.690343 (Simulation time: 0 hr 18 min 1 sec) 
Heartbeat CPU 0 instructions: 90000002 cycles: 73188589 heartbeat IPC: 0.638252 cumulative IPC: 0.676539 (Simulation time: 0 hr 20 min 46 sec) 
Heartbeat CPU 0 instructions: 100000002 cycles: 88464976 heartbeat IPC: 0.654605 cumulative IPC: 0.672036 (Simulation time: 0 hr 23 min 12 sec) 
Finished CPU 0 instructions: 50000001 cycles: 74400805 cumulative IPC: 0.672036 (Simulation time: 0 hr 23 min 12 sec) 

ChampSim completed all CPUs

Region of Interest Statistics

CPU 0 cumulative IPC: 0.672036 instructions: 50000001 cycles: 74400805

CPU 0 Average Load ROB stall cycles: 1.73099e+07
CPU 0 Fraction of times ROB stalled by Loads: 34.348
CPU 0 Percentage of Load stall cycles in Total stall cycles: 2.41407e+08
Issued all: 27222559
Issued LT all: 21518039
rob_not_full_when_issued_lt_all: 20371328
Issued LT one: 16269679
rob_not_full_when_issued_lt_one: 15238243
critical_ip_candidate_identification_operations: 5822242
critical_ip_candidate_identification_operation_per_cycle: 0.0782551
 Total stall cycles: 60771912
 Total load stall cycles: 146707455582557
Unique Load IPs: 41101
CPU 0 NUM of IPS identified critical: 157
CPU 0 Num of Load IPs stalling ROB: 27707
Threshold modification factor: -4
Max PIST entries: 64
Min PIST entries: 0
Avg PIST entries: 31.93
Trouble in retire width: 0.87023
MaC = Marked as critical.
lt_50_percent_before_Mac: 105
gt_90_percent_before_Mac: 7
gt_75_percent_before_Mac: 11
gt_50_percent_before_Mac: 33
stall_proportion_bin_same_before_after: 0
stall_proportion_bin_lower_before_after: 0
stall_proportion_bin_upper_before_after: 0
average_stall_proportion_before: 0.0606484
average_stall_proportion_after: 0.0604973
Critical IP stalls, total frequency: 367766
Non-critical IP stalls, total frequency: 2543355
Total Freq all stalling IPs: 2911121
Critical_IP_Detector_Accuracy_70: 0.547771
Critical_IP_Detector_Accuracy_80: 0.726115
Critical_IP_Detector_Accuracy_90: 0.942675
Critical_IP_Detector_Coverage_70: 0.119444
Critical_IP_Detector_Coverage_80: 0.0840088
Critical_IP_Detector_Coverage_90: 0.0509116
stat_90_percent_critical_ip_stalls_freq: 2620079
stat_90_percent_non_critical_ip_stalls_freq: 291042
AVERAGE_ROB_Occupancy_90_Percent_Critical_IP_Stalls: 72.6644
AVERAGE_ROB_Occupancy_90_Percent_Non_Critical_IP_Stalls: 37.5595
Critical_IP_ROB_Stalls_Bucket_0: 117994
Non-critical_IP_ROB_Stalls_Bucket_0: 1319330
Critical_IP_ROB_Stalls_Bucket_1: 105234
Non-critical_IP_ROB_Stalls_Bucket_1: 724909
Critical_IP_ROB_Stalls_Bucket_2: 52634
Non-critical_IP_ROB_Stalls_Bucket_2: 330118
Critical_IP_ROB_Stalls_Bucket_3: 31588
Non-critical_IP_ROB_Stalls_Bucket_3: 105634
Critical_IP_ROB_Stalls_Bucket_4: 14846
Non-critical_IP_ROB_Stalls_Bucket_4: 36399
Critical_IP_ROB_Stalls_Bucket_5: 12935
Non-critical_IP_ROB_Stalls_Bucket_5: 16791
Critical_IP_ROB_Stalls_Bucket_6: 32535
Non-critical_IP_ROB_Stalls_Bucket_6: 10174
0 => IPs accounting for >50 percent of stalls, 1 => 55, 2 => 60, 3 => 65 and so on till 90.
percent50: 50.0393 num IPs:  199
percent55: 55.0348 num IPs: 279
percent60: 60.028 num IPs: 389
percent65: 65.0011 num IPs: 527
percent70: 70.0132 num IPs: 720
percent75: 75.0109 num IPs: 989
percent80: 80.0015 num IPs: 1357
percent85: 85.0064 num IPs: 1916
percent90: 90.0019 num IPs: 2907
Critical_ROB_Stalls_Percent_0_Bucket_0: 534145
Non-critical_ROB_Stalls_Percent_0_Bucket_0: 903179
Critical_ROB_Stalls_Percent_0_Bucket_1: 486623
Non-critical_ROB_Stalls_Percent_0_Bucket_1: 343520
Critical_ROB_Stalls_Percent_0_Bucket_2: 263560
Non-critical_ROB_Stalls_Percent_0_Bucket_2: 119192
Critical_ROB_Stalls_Percent_0_Bucket_3: 93974
Non-critical_ROB_Stalls_Percent_0_Bucket_3: 43248
Critical_ROB_Stalls_Percent_0_Bucket_4: 30634
Non-critical_ROB_Stalls_Percent_0_Bucket_4: 20611
Critical_ROB_Stalls_Percent_0_Bucket_5: 20486
Non-critical_ROB_Stalls_Percent_0_Bucket_5: 9240
Critical_ROB_Stalls_Percent_0_Bucket_6: 27281
Non-critical_ROB_Stalls_Percent_0_Bucket_6: 15428
Critical_ROB_Stalls_Percent_1_Bucket_0: 609360
Non-critical_ROB_Stalls_Percent_1_Bucket_0: 827964
Critical_ROB_Stalls_Percent_1_Bucket_1: 529824
Non-critical_ROB_Stalls_Percent_1_Bucket_1: 300319
Critical_ROB_Stalls_Percent_1_Bucket_2: 277062
Non-critical_ROB_Stalls_Percent_1_Bucket_2: 105690
Critical_ROB_Stalls_Percent_1_Bucket_3: 99308
Non-critical_ROB_Stalls_Percent_1_Bucket_3: 37914
Critical_ROB_Stalls_Percent_1_Bucket_4: 32944
Non-critical_ROB_Stalls_Percent_1_Bucket_4: 18301
Critical_ROB_Stalls_Percent_1_Bucket_5: 21635
Non-critical_ROB_Stalls_Percent_1_Bucket_5: 8091
Critical_ROB_Stalls_Percent_1_Bucket_6: 31997
Non-critical_ROB_Stalls_Percent_1_Bucket_6: 10712
Critical_ROB_Stalls_Percent_2_Bucket_0: 683450
Non-critical_ROB_Stalls_Percent_2_Bucket_0: 753874
Critical_ROB_Stalls_Percent_2_Bucket_1: 571541
Non-critical_ROB_Stalls_Percent_2_Bucket_1: 258602
Critical_ROB_Stalls_Percent_2_Bucket_2: 291641
Non-critical_ROB_Stalls_Percent_2_Bucket_2: 91111
Critical_ROB_Stalls_Percent_2_Bucket_3: 105009
Non-critical_ROB_Stalls_Percent_2_Bucket_3: 32213
Critical_ROB_Stalls_Percent_2_Bucket_4: 38185
Non-critical_ROB_Stalls_Percent_2_Bucket_4: 13060
Critical_ROB_Stalls_Percent_2_Bucket_5: 23166
Non-critical_ROB_Stalls_Percent_2_Bucket_5: 6560
Critical_ROB_Stalls_Percent_2_Bucket_6: 34496
Non-critical_ROB_Stalls_Percent_2_Bucket_6: 8213
Critical_ROB_Stalls_Percent_3_Bucket_0: 746958
Non-critical_ROB_Stalls_Percent_3_Bucket_0: 690366
Critical_ROB_Stalls_Percent_3_Bucket_1: 621963
Non-critical_ROB_Stalls_Percent_3_Bucket_1: 208180
Critical_ROB_Stalls_Percent_3_Bucket_2: 311485
Non-critical_ROB_Stalls_Percent_3_Bucket_2: 71267
Critical_ROB_Stalls_Percent_3_Bucket_3: 111353
Non-critical_ROB_Stalls_Percent_3_Bucket_3: 25869
Critical_ROB_Stalls_Percent_3_Bucket_4: 40950
Non-critical_ROB_Stalls_Percent_3_Bucket_4: 10295
Critical_ROB_Stalls_Percent_3_Bucket_5: 24280
Non-critical_ROB_Stalls_Percent_3_Bucket_5: 5446
Critical_ROB_Stalls_Percent_3_Bucket_6: 35272
Non-critical_ROB_Stalls_Percent_3_Bucket_6: 7437
Critical_ROB_Stalls_Percent_4_Bucket_0: 843579
Non-critical_ROB_Stalls_Percent_4_Bucket_0: 593745
Critical_ROB_Stalls_Percent_4_Bucket_1: 651227
Non-critical_ROB_Stalls_Percent_4_Bucket_1: 178916
Critical_ROB_Stalls_Percent_4_Bucket_2: 323882
Non-critical_ROB_Stalls_Percent_4_Bucket_2: 58870
Critical_ROB_Stalls_Percent_4_Bucket_3: 115287
Non-critical_ROB_Stalls_Percent_4_Bucket_3: 21935
Critical_ROB_Stalls_Percent_4_Bucket_4: 42815
Non-critical_ROB_Stalls_Percent_4_Bucket_4: 8430
Critical_ROB_Stalls_Percent_4_Bucket_5: 25196
Non-critical_ROB_Stalls_Percent_4_Bucket_5: 4530
Critical_ROB_Stalls_Percent_4_Bucket_6: 36182
Non-critical_ROB_Stalls_Percent_4_Bucket_6: 6527
Critical_ROB_Stalls_Percent_5_Bucket_0: 928121
Non-critical_ROB_Stalls_Percent_5_Bucket_0: 509203
Critical_ROB_Stalls_Percent_5_Bucket_1: 689526
Non-critical_ROB_Stalls_Percent_5_Bucket_1: 140617
Critical_ROB_Stalls_Percent_5_Bucket_2: 337072
Non-critical_ROB_Stalls_Percent_5_Bucket_2: 45680
Critical_ROB_Stalls_Percent_5_Bucket_3: 120064
Non-critical_ROB_Stalls_Percent_5_Bucket_3: 17158
Critical_ROB_Stalls_Percent_5_Bucket_4: 44800
Non-critical_ROB_Stalls_Percent_5_Bucket_4: 6445
Critical_ROB_Stalls_Percent_5_Bucket_5: 26463
Non-critical_ROB_Stalls_Percent_5_Bucket_5: 3263
Critical_ROB_Stalls_Percent_5_Bucket_6: 37612
Non-critical_ROB_Stalls_Percent_5_Bucket_6: 5097
Critical_ROB_Stalls_Percent_6_Bucket_0: 1018564
Non-critical_ROB_Stalls_Percent_6_Bucket_0: 418760
Critical_ROB_Stalls_Percent_6_Bucket_1: 728056
Non-critical_ROB_Stalls_Percent_6_Bucket_1: 102087
Critical_ROB_Stalls_Percent_6_Bucket_2: 346382
Non-critical_ROB_Stalls_Percent_6_Bucket_2: 36370
Critical_ROB_Stalls_Percent_6_Bucket_3: 123620
Non-critical_ROB_Stalls_Percent_6_Bucket_3: 13602
Critical_ROB_Stalls_Percent_6_Bucket_4: 46304
Non-critical_ROB_Stalls_Percent_6_Bucket_4: 4941
Critical_ROB_Stalls_Percent_6_Bucket_5: 27263
Non-critical_ROB_Stalls_Percent_6_Bucket_5: 2463
Critical_ROB_Stalls_Percent_6_Bucket_6: 38755
Non-critical_ROB_Stalls_Percent_6_Bucket_6: 3954
Critical_ROB_Stalls_Percent_7_Bucket_0: 1114447
Non-critical_ROB_Stalls_Percent_7_Bucket_0: 322877
Critical_ROB_Stalls_Percent_7_Bucket_1: 758597
Non-critical_ROB_Stalls_Percent_7_Bucket_1: 71546
Critical_ROB_Stalls_Percent_7_Bucket_2: 357860
Non-critical_ROB_Stalls_Percent_7_Bucket_2: 24892
Critical_ROB_Stalls_Percent_7_Bucket_3: 127188
Non-critical_ROB_Stalls_Percent_7_Bucket_3: 10034
Critical_ROB_Stalls_Percent_7_Bucket_4: 47703
Non-critical_ROB_Stalls_Percent_7_Bucket_4: 3542
Critical_ROB_Stalls_Percent_7_Bucket_5: 28160
Non-critical_ROB_Stalls_Percent_7_Bucket_5: 1566
Critical_ROB_Stalls_Percent_7_Bucket_6: 40673
Non-critical_ROB_Stalls_Percent_7_Bucket_6: 2036
Critical_ROB_Stalls_Percent_8_Bucket_0: 1210845
Non-critical_ROB_Stalls_Percent_8_Bucket_0: 226479
Critical_ROB_Stalls_Percent_8_Bucket_1: 788262
Non-critical_ROB_Stalls_Percent_8_Bucket_1: 41881
Critical_ROB_Stalls_Percent_8_Bucket_2: 369278
Non-critical_ROB_Stalls_Percent_8_Bucket_2: 13474
Critical_ROB_Stalls_Percent_8_Bucket_3: 132073
Non-critical_ROB_Stalls_Percent_8_Bucket_3: 5149
Critical_ROB_Stalls_Percent_8_Bucket_4: 49243
Non-critical_ROB_Stalls_Percent_8_Bucket_4: 2002
Critical_ROB_Stalls_Percent_8_Bucket_5: 28881
Non-critical_ROB_Stalls_Percent_8_Bucket_5: 845
Critical_ROB_Stalls_Percent_8_Bucket_6: 41497
Non-critical_ROB_Stalls_Percent_8_Bucket_6: 1212
Average ROB occupancy Load Stall Begin: 59.5561
Average ROB occupancy Load Stall End: 69.1548
Min ROB occupancy Load Stall Begin: 1
Max ROB occupancy Load Stall Begin: 352
Min ROB occupancy Load Stall End: 1
Max ROB occupancy Load Stall End: 352
Average ROB occupancy Critical Load Stall Begin: 109.659
Average ROB occupancy Critical Load Stall End: 120.499
Min ROB occupancy Critical Load Stall Begin: 1
Max ROB occupancy Critical Load Stall Begin: 352
Min ROB occupancy Critical Load Stall End: 1
Max ROB occupancy Critical Load Stall End: 352
 ROB Load Stall Begin Bucket Count 0: 1692314
 ROB Load Stall End Bucket Count 0: 1437324
 ROB Critical Load Stall Begin Bucket Count 0: 103896
 ROB Critical Load Stall End Bucket Count 0: 76870
 ROB Load Stall Begin Bucket Count 1: 699992
 ROB Load Stall End Bucket Count 1: 830143
 ROB Critical Load Stall Begin Bucket Count 1: 57577
 ROB Critical Load Stall End Bucket Count 1: 73369
 ROB Load Stall Begin Bucket Count 2: 311173
 ROB Load Stall End Bucket Count 2: 382752
 ROB Critical Load Stall Begin Bucket Count 2: 36980
 ROB Critical Load Stall End Bucket Count 2: 40561
 ROB Load Stall Begin Bucket Count 3: 104373
 ROB Load Stall End Bucket Count 3: 137222
 ROB Critical Load Stall Begin Bucket Count 3: 21647
 ROB Critical Load Stall End Bucket Count 3: 25713
 ROB Load Stall Begin Bucket Count 4: 40123
 ROB Load Stall End Bucket Count 4: 51245
 ROB Critical Load Stall Begin Bucket Count 4: 10662
 ROB Critical Load Stall End Bucket Count 4: 11554
 ROB Load Stall Begin Bucket Count 5: 26341
 ROB Load Stall End Bucket Count 5: 29726
 ROB Critical Load Stall Begin Bucket Count 5: 11251
 ROB Critical Load Stall End Bucket Count 5: 10979
 ROB Load Stall Begin Bucket Count 6: 36805
 ROB Load Stall End Bucket Count 6: 42709
 ROB Critical Load Stall Begin Bucket Count 6: 25783
 ROB Critical Load Stall End Bucket Count 6: 28750
PIST Tag Read Accesses: 4636400
PIST Read Accesses: 2318200
PIST Tag Write Accesses: 4636400
PIST Write Accesses: 2318200
Criticality detector called times: 2657644
Max global_stall_cycles_count: 4403037
Threshold Modified: 4 times, factor: -4
Sturdy critical IP cache stats: 
 Unused entries: 0
CIC Tag Read Accesses: 0
CIC Read Accesses: 0
CIC Tag Write Accesses: 0
CIC Write Accesses: 0
Wobbly critical IP cache stats: 
 Unused entries: 16
CIC Tag Read Accesses: 80022599
CIC Read Accesses: 0
CIC Tag Write Accesses: 55136
CIC Write Accesses: 0
ITLB TOTAL     ACCESS:    9252157  HIT:    9132756  MISS:     119401  HIT %:    98.7095  MISS %:    1.29052   MPKI: 2.38802
ITLB LOAD TRANSLATION ACCESS:    8275932  HIT:    8217263  MISS:      58669  HIT %:    99.2911  MISS %:   0.708911   MPKI: 1.17338
ITLB TRANSLATION FROM L1D PREFETCHER ACCESS:     976225  HIT:     915493  MISS:      60732  HIT %:    93.7789  MISS %:    6.22111   MPKI: 1.21464
ITLBprefetch_cycle_count: 0 prefetches_per_prefetch_cycle: -nan
ITLB PREFETCH  REQUESTED:          0  ISSUED:          0  USEFUL:      48567  USELESS:      12170
ITLB USEFUL LOAD PREFETCHES:      48567 PREFETCH ISSUED TO LOWER LEVEL:          0  ACCURACY: inf
ITLB TIMELY PREFETCHES:      48567 LATE PREFETCHES: 333 DROPPED PREFETCHES: 325
ITLB PREFETCHES SAME FILL-ORIGIN LEVEL: 0 DIFFERENT FILL-ORIGIN LEVEL: 0
ITLB AVERAGE MISS LATENCY: 136993 cycles
ITLB RQ	ACCESS:   12554122	FORWARD:          0	MERGED:    3282024	TO_CACHE:    9272098

DTLB TOTAL     ACCESS:   10411524  HIT:   10210196  MISS:     201328  HIT %:    98.0663  MISS %:     1.9337   MPKI: 4.02656
DTLB LOAD TRANSLATION ACCESS:   10411524  HIT:   10210196  MISS:     201328  HIT %:    98.0663  MISS %:     1.9337   MPKI: 4.02656
DTLBprefetch_cycle_count: 0 prefetches_per_prefetch_cycle: -nan
DTLB PREFETCH  REQUESTED:          0  ISSUED:          0  USEFUL:          0  USELESS:          0
DTLB USEFUL LOAD PREFETCHES:          0 PREFETCH ISSUED TO LOWER LEVEL:          0  ACCURACY: -nan
DTLB TIMELY PREFETCHES:          0 LATE PREFETCHES: 0 DROPPED PREFETCHES: 0
DTLB PREFETCHES SAME FILL-ORIGIN LEVEL: 0 DIFFERENT FILL-ORIGIN LEVEL: 0
DTLB AVERAGE MISS LATENCY: 12.8899 cycles
DTLB RQ	ACCESS:   14351290	FORWARD:          0	MERGED:    3908968	TO_CACHE:   10442322

STLB TOTAL     ACCESS:     396612  HIT:     384709  MISS:      11903  HIT %:    96.9988  MISS %:    3.00117   MPKI: 0.23806
STLB LOAD TRANSLATION ACCESS:     259666  HIT:     248567  MISS:      11099  HIT %:    95.7257  MISS %:    4.27434   MPKI: 0.22198
STLB TRANSLATION FROM L1D PREFETCHER ACCESS:     136946  HIT:     136142  MISS:        804  HIT %:    99.4129  MISS %:   0.587093   MPKI: 0.01608
STLBprefetch_cycle_count: 0 prefetches_per_prefetch_cycle: -nan
STLB PREFETCH  REQUESTED:          0  ISSUED:          0  USEFUL:        565  USELESS:        241
STLB USEFUL LOAD PREFETCHES:        565 PREFETCH ISSUED TO LOWER LEVEL:          0  ACCURACY: inf
STLB TIMELY PREFETCHES:        565 LATE PREFETCHES: 0 DROPPED PREFETCHES: 327
STLB PREFETCHES SAME FILL-ORIGIN LEVEL: 0 DIFFERENT FILL-ORIGIN LEVEL: 0
STLB AVERAGE MISS LATENCY: 79.2774 cycles
STLB RQ	ACCESS:     439109	FORWARD:          0	MERGED:      42170	TO_CACHE:     396939

STLB Hit, L1D data hit: 0
STLB Hit, L2C data hit: 0
STLB Hit, LLC data hit: 0
STLB Hit, LLC data miss: 0
STLB STLB hints to L2: 0
L1D TOTAL     ACCESS:   13967671  HIT:   13555429  MISS:     412242  HIT %:    97.0486  MISS %:     2.9514   MPKI: 8.24484
L1D LOAD      ACCESS:    7059225  HIT:    6880446  MISS:     178779  HIT %:    97.4674  MISS %:    2.53256   MPKI: 3.57558
L1D RFO       ACCESS:    6795435  HIT:    6600560  MISS:     194875  HIT %:    97.1323  MISS %:    2.86773   MPKI: 3.8975
L1D PREFETCH  ACCESS:     113011  HIT:      74423  MISS:      38588  HIT %:    65.8547  MISS %:    34.1453   MPKI: 0.77176
L1Dprefetch_cycle_count: 77251 prefetches_per_prefetch_cycle: 3.05709
L1D PREFETCH  REQUESTED:     236177  ISSUED:     236163  USEFUL:      17054  USELESS:      21527
L1D USEFUL LOAD PREFETCHES:      17054 PREFETCH ISSUED TO LOWER LEVEL:      41296  ACCURACY: 41.297
L1D TIMELY PREFETCHES:      17054 LATE PREFETCHES: 2527 DROPPED PREFETCHES: 0
L1D PREFETCHES SAME FILL-ORIGIN LEVEL: 41296 DIFFERENT FILL-ORIGIN LEVEL: 0
L1D AVERAGE MISS LATENCY: 348463 cycles
L1D RQ	ACCESS:   10971080	FORWARD:          0	MERGED:    3727642	TO_CACHE:    7090762
L1D WQ	ACCESS:    7412318	FORWARD:     152733	MERGED:     151790	TO_CACHE:    7260528
L1D PQ	ACCESS:     118110	FORWARD:          0	MERGED:          0	TO_CACHE:     118053

L1D UNIQUE REGIONS ACCESSED: 0
L1D REGIONS CONFLICTS: 0
L1D Cross Page Prefetch Requests: 0
L1D Same Page Prefetch Requests: 125635
L1D ROI Sum of L1D PQ occupancy: 1554766
L1D PREFETCHES PUSHED FROM L2C: 0
L1I TOTAL     ACCESS:   12418926  HIT:   11352929  MISS:    1065997  HIT %:    91.4164  MISS %:    8.58365   MPKI: 21.3199
L1I LOAD      ACCESS:    9749482  HIT:    9481362  MISS:     268120  HIT %:    97.2499  MISS %:    2.75009   MPKI: 5.3624
L1I PREFETCH  ACCESS:    2669444  HIT:    1871567  MISS:     797877  HIT %:    70.1107  MISS %:    29.8893   MPKI: 15.9575
L1Iprefetch_cycle_count: 0 prefetches_per_prefetch_cycle: inf
L1I PREFETCH  REQUESTED:    2918790  ISSUED:    2915737  USEFUL:     511388  USELESS:     286452
L1I USEFUL LOAD PREFETCHES:     511388 PREFETCH ISSUED TO LOWER LEVEL:     826197  ACCURACY: 61.8966
L1I TIMELY PREFETCHES:     511388 LATE PREFETCHES: 28320 DROPPED PREFETCHES: 685
L1I PREFETCHES SAME FILL-ORIGIN LEVEL: 826197 DIFFERENT FILL-ORIGIN LEVEL: 0
L1I AVERAGE MISS LATENCY: 1.27211e+06 cycles
L1I RQ	ACCESS:   14561188	FORWARD:          0	MERGED:    4775391	TO_CACHE:    9785797
L1I PQ	ACCESS:    2915737	FORWARD:          0	MERGED:     147412	TO_CACHE:    2768325

BTB TOTAL     ACCESS:    6897112  HIT:    6294074  MISS:     603038  HIT %:    91.2567  MISS %:    8.74334   MPKI: 12.0608
BTB BRANCH_DIRECT_JUMP	ACCESS:     484667  HIT:     467652  MISS:      17015
BTB BRANCH_INDIRECT	ACCESS:      85086  HIT:      43882  MISS:      41204
BTB BRANCH_CONDITIONAL	ACCESS:    3984632  HIT:    3933521  MISS:      51111
BTB BRANCH_DIRECT_CALL	ACCESS:    1028917  HIT:     994054  MISS:      34863
BTB BRANCH_INDIRECT_CALL	ACCESS:     141825  HIT:     105579  MISS:      36246
BTB BRANCH_RETURN	ACCESS:    1171985  HIT:     749386  MISS:     422599
BTB BRANCH_OTHER ACCESS:          0  HIT:          0  MISS:          0

L2C TOTAL     ACCESS:    1733320  HIT:    1356613  MISS:     376707  HIT %:    78.2667  MISS %:    21.7333   MPKI: 7.53414
L2C LOAD      ACCESS:     416045  HIT:     298113  MISS:     117932  HIT %:     71.654  MISS %:     28.346   MPKI: 2.35864
L2C DATA LOAD MPKI: 1.8598
L2C INSTRUCTION LOAD MPKI: 0.49884
L2C RFO       ACCESS:     194691  HIT:      32613  MISS:     162078  HIT %:    16.7512  MISS %:    83.2488   MPKI: 3.24156
L2C PREFETCH  ACCESS:     867492  HIT:     786622  MISS:      80870  HIT %:    90.6777  MISS %:    9.32228   MPKI: 1.6174
L2C DATA PREFETCH MPKI: 0.50902
L2C INSTRUCTION PREFETCH MPKI: 1.10838
L2C WRITEBACK ACCESS:     241929  HIT:     230151  MISS:      11778  HIT %:    95.1316  MISS %:    4.86837   MPKI: 0.23556
L2C LOAD TRANSLATION ACCESS:      11942  HIT:       8230  MISS:       3712  HIT %:    68.9164  MISS %:    31.0836   MPKI: 0.07424
L2C TRANSLATION FROM L1D PREFETCHER ACCESS:       1221  HIT:        884  MISS:        337  HIT %:    72.3997  MISS %:    27.6003   MPKI: 0.00674
L2Cprefetch_cycle_count: 0 prefetches_per_prefetch_cycle: -nan
L2C PREFETCH  REQUESTED:          0  ISSUED:          0  USEFUL:       8291  USELESS:      71174
L2C USEFUL LOAD PREFETCHES:       8291 PREFETCH ISSUED TO LOWER LEVEL:      80870  ACCURACY: 10.2523
L2C TIMELY PREFETCHES:       8291 LATE PREFETCHES: 0 DROPPED PREFETCHES: 0
L2C PREFETCHES SAME FILL-ORIGIN LEVEL: 0 DIFFERENT FILL-ORIGIN LEVEL: 0
L2C AVERAGE MISS LATENCY: 128.483 cycles
L2C RQ	ACCESS:     623909	FORWARD:          0	MERGED:          0	TO_CACHE:     623899
L2C WQ	ACCESS:     241929	FORWARD:         11	MERGED:          0	TO_CACHE:     241929
L2C PQ	ACCESS:     867493	FORWARD:          0	MERGED:          0	TO_CACHE:     867492

L2C Instructions Evicting Data 48605
L2C Translations Evicting Data 2751
L2C Data Evicting Data 234074
L2C Instructions Evicting Instructions 30592
L2C Translations Evicting Instructions 1213
L2C Data Evicting Instructions 43808
L2C Instructions Evicting Translations 1164
L2C Translations Evicting Translations 85
L2C Data Evicting Translations 2637
L2C Dense regions hint from L2: 0
PSCL5 TOTAL     ACCESS:      12230  HIT:      12230  MISS:          0  HIT %:        100  MISS %:          0   MPKI: 0
PSCL5 LOAD TRANSLATION ACCESS:      11099  HIT:      11099  MISS:          0  HIT %:        100  MISS %:          0   MPKI: 0
PSCL5 TRANSLATION FROM L1D PREFETCHER ACCESS:       1131  HIT:       1131  MISS:          0  HIT %:        100  MISS %:          0   MPKI: 0
PSCL5prefetch_cycle_count: 0 prefetches_per_prefetch_cycle: -nan
PSCL5 PREFETCH  REQUESTED:          0  ISSUED:          0  USEFUL:          0  USELESS:          0
PSCL5 USEFUL LOAD PREFETCHES:          0 PREFETCH ISSUED TO LOWER LEVEL:          0  ACCURACY: -nan
PSCL5 TIMELY PREFETCHES:          0 LATE PREFETCHES: 0 DROPPED PREFETCHES: 0
PSCL5 PREFETCHES SAME FILL-ORIGIN LEVEL: 0 DIFFERENT FILL-ORIGIN LEVEL: 0

PSCL4 TOTAL     ACCESS:      12230  HIT:      12230  MISS:          0  HIT %:        100  MISS %:          0   MPKI: 0
PSCL4 LOAD TRANSLATION ACCESS:      11099  HIT:      11099  MISS:          0  HIT %:        100  MISS %:          0   MPKI: 0
PSCL4 TRANSLATION FROM L1D PREFETCHER ACCESS:       1131  HIT:       1131  MISS:          0  HIT %:        100  MISS %:          0   MPKI: 0
PSCL4prefetch_cycle_count: 0 prefetches_per_prefetch_cycle: -nan
PSCL4 PREFETCH  REQUESTED:          0  ISSUED:          0  USEFUL:          0  USELESS:          0
PSCL4 USEFUL LOAD PREFETCHES:          0 PREFETCH ISSUED TO LOWER LEVEL:          0  ACCURACY: -nan
PSCL4 TIMELY PREFETCHES:          0 LATE PREFETCHES: 0 DROPPED PREFETCHES: 0
PSCL4 PREFETCHES SAME FILL-ORIGIN LEVEL: 0 DIFFERENT FILL-ORIGIN LEVEL: 0

PSCL3 TOTAL     ACCESS:      12209  HIT:      12199  MISS:         10  HIT %:    99.9181  MISS %:  0.0819068   MPKI: 0.0002
PSCL3 LOAD TRANSLATION ACCESS:      11084  HIT:      11074  MISS:         10  HIT %:    99.9098  MISS %:  0.0902201   MPKI: 0.0002
PSCL3 TRANSLATION FROM L1D PREFETCHER ACCESS:       1125  HIT:       1125  MISS:          0  HIT %:        100  MISS %:          0   MPKI: 0
PSCL3prefetch_cycle_count: 0 prefetches_per_prefetch_cycle: -nan
PSCL3 PREFETCH  REQUESTED:          0  ISSUED:          0  USEFUL:          0  USELESS:          0
PSCL3 USEFUL LOAD PREFETCHES:          0 PREFETCH ISSUED TO LOWER LEVEL:          0  ACCURACY: -nan
PSCL3 TIMELY PREFETCHES:          0 LATE PREFETCHES: 0 DROPPED PREFETCHES: 0
PSCL3 PREFETCHES SAME FILL-ORIGIN LEVEL: 0 DIFFERENT FILL-ORIGIN LEVEL: 0

PSCL2 TOTAL     ACCESS:      12202  HIT:      11306  MISS:        896  HIT %:    92.6569  MISS %:    7.34306   MPKI: 0.01792
PSCL2 LOAD TRANSLATION ACCESS:      11158  HIT:      10262  MISS:        896  HIT %:    91.9699  MISS %:    8.03011   MPKI: 0.01792
PSCL2 TRANSLATION FROM L1D PREFETCHER ACCESS:       1044  HIT:       1044  MISS:          0  HIT %:        100  MISS %:          0   MPKI: 0
PSCL2prefetch_cycle_count: 0 prefetches_per_prefetch_cycle: -nan
PSCL2 PREFETCH  REQUESTED:          0  ISSUED:          0  USEFUL:          0  USELESS:          0
PSCL2 USEFUL LOAD PREFETCHES:          0 PREFETCH ISSUED TO LOWER LEVEL:          0  ACCURACY: -nan
PSCL2 TIMELY PREFETCHES:          0 LATE PREFETCHES: 0 DROPPED PREFETCHES: 0
PSCL2 PREFETCHES SAME FILL-ORIGIN LEVEL: 0 DIFFERENT FILL-ORIGIN LEVEL: 0

LLC TOTAL     ACCESS:     559702  HIT:     298384  MISS:     261318  HIT %:    53.3112  MISS %:    46.6888   MPKI: 5.22636
LLC LOAD      ACCESS:     117932  HIT:      52632  MISS:      65300  HIT %:    44.6291  MISS %:    55.3709   MPKI: 1.306
LLC RFO       ACCESS:     162077  HIT:       8060  MISS:     154017  HIT %:    4.97294  MISS %:    95.0271   MPKI: 3.08034
LLC PREFETCH  ACCESS:      80870  HIT:      45414  MISS:      35456  HIT %:    56.1568  MISS %:    43.8432   MPKI: 0.70912
LLC WRITEBACK ACCESS:     194774  HIT:     190286  MISS:       4488  HIT %:    97.6958  MISS %:    2.30421   MPKI: 0.08976
LLC LOAD TRANSLATION ACCESS:       3712  HIT:       1805  MISS:       1907  HIT %:    48.6261  MISS %:    51.3739   MPKI: 0.03814
LLC TRANSLATION FROM L1D PREFETCHER ACCESS:        337  HIT:        187  MISS:        150  HIT %:    55.4896  MISS %:    44.5104   MPKI: 0.003
LLCprefetch_cycle_count: 0 prefetches_per_prefetch_cycle: -nan
LLC PREFETCH  REQUESTED:          0  ISSUED:          0  USEFUL:       4611  USELESS:      26191
LLC USEFUL LOAD PREFETCHES:       4611 PREFETCH ISSUED TO LOWER LEVEL:      35456  ACCURACY: 13.0049
LLC TIMELY PREFETCHES:       4611 LATE PREFETCHES: 0 DROPPED PREFETCHES: 0
LLC PREFETCHES SAME FILL-ORIGIN LEVEL: 0 DIFFERENT FILL-ORIGIN LEVEL: 0
LLC AVERAGE MISS LATENCY: 143.232 cycles
LLC RQ	ACCESS:     284059	FORWARD:          0	MERGED:          0	TO_CACHE:     284058
LLC WQ	ACCESS:     194774	FORWARD:          1	MERGED:          0	TO_CACHE:     194774
LLC PQ	ACCESS:      80870	FORWARD:          0	MERGED:          0	TO_CACHE:      80870

LLC Dense regions hint to LLC: 0

RAW hits: 1821119
Loads Generated: 12792198
Loads sent to L1D: 10971080
Stores Generated: 7412307
Stores sent to L1D: 7412318
Major fault: 0 Minor fault: 6178
Allocated PAGES: 6178
I-Shadow cache 408 bytes
Touched + WorthPF tables 6144 bytes 
MMA filter 174 bytes 
FNL filter 272 bytes 
TOTAL PREFETCHER STORAGE SIZE: 25174 bytes
CPU 0 L1I next line prefetcher final stats

total_pref_operate_instances_l1: 1103854
dynamic_config_counter_instances_1: 258792
dynamic_config_counter_instances_2: 12483
dynamic_config_counter_instances_3: 17615
dynamic_config_counter_instances_4: 8354
dynamic_config_counter_instances_5: 806610
stream: 
stream:times selected: 182145
stream:pref_filled: 28119
stream:pref_useful: 11838
stream:pref_late: 706
stream:misses: 1346
stream:misses_by_poll: 0

CS: 
CS:times selected: 28477
CS:pref_filled: 2177
CS:pref_useful: 1034
CS:pref_late: 36
CS:misses: 180
CS:misses_by_poll: 6

CPLX: 
CPLX:times selected: 175505
CPLX:pref_filled: 8526
CPLX:pref_useful: 4133
CPLX:pref_late: 1179
CPLX:misses: 12928
CPLX:misses_by_poll: 119

NL_L1: 
NL:times selected: 21030
NL:pref_filled: 3271
NL:pref_useful: 1315
NL:pref_late: 101
NL:misses: 2685
NL:misses_by_poll: 12

total selections: 407157
total_filled: 38588
total_useful: 17054
total_late: 2573
total_polluted: 137
total_misses_after_warmup: 48622
conflicts: 316498
Degree Incremented Times: 0
Degree Decremented Times: 10787

L1 IP Table Write Accesses: 731700
L1 IP Table Read Accesses: 415202
L1 RST Write Accesses: 175415
L1 RST Read Accesses: 350830
L1 CSPT Write Accesses: 175415
L1 CSPT Read Accesses: 345121
L1 RR Filter Tag Write Accesses: 118124
L1 RR Filter Tag Read Accesses: 8956388
L1 IP Table Tag Write Accesses: 1103854
L1 IP Table Tag Read Accesses: 1103854
L1 RST Tag Write Accesses: 0
L1 RST Tag Read Accesses: 1639193
L1 RR Filter Write Accesses: 0
L1 RR Filter Read Accesses: 355017
test: 45520

DRAM Statistics
 CHANNEL 0
 RQ ROW_BUFFER_HIT:      86874  ROW_BUFFER_MISS:     169955
 DBUS_CONGESTED:        239
 WQ ROW_BUFFER_HIT:      35632  ROW_BUFFER_MISS:     145766  FULL:          0

 AVG_CONGESTED_CYCLE: 3
 All warmup complete: 2
Channel 0 Bank busy for read cycles: 0
Channel 0 Bank busy for write cycles: 0
Channel 0
Rank 0
0banks busy for read cycles: 45307869
0banks busy for write cycles: 45946
1banks busy for read cycles: 11201372
1banks busy for write cycles: 5373316
2banks busy for read cycles: 3312456
2banks busy for write cycles: 2623037
3banks busy for read cycles: 1014579
3banks busy for write cycles: 1154011
4banks busy for read cycles: 477634
4banks busy for write cycles: 559361
5banks busy for read cycles: 246924
5banks busy for write cycles: 388432
6banks busy for read cycles: 266477
6banks busy for write cycles: 352504
7banks busy for read cycles: 194902
7banks busy for write cycles: 415700
8banks busy for read cycles: 364222
8banks busy for write cycles: 1102064

CPU 0 Branch Prediction Accuracy: 97.8666% MPKI: 3.9013 Average ROB Occupancy at Mispredict: 48.783
Branch types
NOT_BRANCH: 40856330 81.7127%
BRANCH_DIRECT_JUMP: 484667 0.969334%
BRANCH_INDIRECT: 85086 0.170172%
BRANCH_CONDITIONAL: 6230887 12.4618%
BRANCH_DIRECT_CALL: 1028917 2.05783%
BRANCH_INDIRECT_CALL: 141825 0.28365%
BRANCH_RETURN: 1171985 2.34397%
BRANCH_OTHER: 0 0%

DRAM PAGES: 1048576
Allocated PAGES: 6178
