
*** ChampSim Multicore Out-of-Order Simulator ***

Warmup Instructions: 50000000
Simulation Instructions: 50000000
Number of CPUs: 1
LLC sets: 2048
LLC ways: 16
Off-chip DRAM Size: 4096 MB Channels: 1 Width: 64-bit Data Rate: 6400 MT/s
CPU 0 runs ../IPC-traces//client_007.champsimtrace.xz
.xz
BTB has LRU replacement policy
ITLB has LRU replacement policy
DTLB has LRU replacement policy
STLB has LRU replacement policy
CPU 0 L1I next line prefetcher
L1I has LRU replacement policy
IP Table Entries: 64
L1D has LRU replacement policy
Initialize SRRIP state for L2C
Initialize DRRIP state for LLC
Heartbeat CPU 0 instructions: 10000003 cycles: 3033640 heartbeat IPC: 3.29637 cumulative IPC: 3.29637 (Simulation time: 0 hr 3 min 12 sec) 
Heartbeat CPU 0 instructions: 20000003 cycles: 5974594 heartbeat IPC: 3.40026 cumulative IPC: 3.34751 (Simulation time: 0 hr 6 min 9 sec) 
Heartbeat CPU 0 instructions: 30000003 cycles: 9155092 heartbeat IPC: 3.14416 cumulative IPC: 3.27687 (Simulation time: 0 hr 9 min 54 sec) 
Heartbeat CPU 0 instructions: 40000003 cycles: 12450484 heartbeat IPC: 3.03454 cumulative IPC: 3.21273 (Simulation time: 0 hr 13 min 51 sec) 
Heartbeat CPU 0 instructions: 50000001 cycles: 15355843 heartbeat IPC: 3.44191 cumulative IPC: 3.25609 (Simulation time: 0 hr 16 min 59 sec) 

Warmup complete CPU 0 instructions: 50000001 cycles: 15355843 (Simulation time: 0 hr 16 min 59 sec) 

Heartbeat CPU 0 instructions: 60000003 cycles: 28496978 heartbeat IPC: 0.760969 cumulative IPC: 0.760969 (Simulation time: 0 hr 20 min 26 sec) 
Heartbeat CPU 0 instructions: 70000003 cycles: 45705609 heartbeat IPC: 0.581104 cumulative IPC: 0.658984 (Simulation time: 0 hr 24 min 22 sec) 
Heartbeat CPU 0 instructions: 80000001 cycles: 56046525 heartbeat IPC: 0.967032 cumulative IPC: 0.73727 (Simulation time: 0 hr 27 min 47 sec) 
Heartbeat CPU 0 instructions: 90000001 cycles: 70487750 heartbeat IPC: 0.692462 cumulative IPC: 0.725533 (Simulation time: 0 hr 31 min 11 sec) 
Heartbeat CPU 0 instructions: 100000000 cycles: 87251493 heartbeat IPC: 0.596525 cumulative IPC: 0.695452 (Simulation time: 0 hr 35 min 26 sec) 
Finished CPU 0 instructions: 50000001 cycles: 71895651 cumulative IPC: 0.695452 (Simulation time: 0 hr 35 min 26 sec) 

ChampSim completed all CPUs

Region of Interest Statistics

CPU 0 cumulative IPC: 0.695452 instructions: 50000001 cycles: 71895651

CPU 0 Average Load ROB stall cycles: 1.87987e+07
CPU 0 Fraction of times ROB stalled by Loads: 39.0035
CPU 0 Percentage of Load stall cycles in Total stall cycles: 2.34381e+08
Issued all: 30918599
Issued LT all: 25498434
rob_not_full_when_issued_lt_all: 18625937
Issued LT one: 19779098
rob_not_full_when_issued_lt_one: 14268878
 Total stall cycles: 59399151
 Total load stall cycles: 139220047386612
Unique Load IPs: 16511
CPU 0 NUM of IPS identified critical: 6
CPU 0 Num of Load IPs stalling ROB: 0
Threshold modification factor: 0
Trouble in retire width: -nan
MaC = Marked as critical.
lt_50_percent_before_Mac: 4
gt_90_percent_before_Mac: 0
gt_75_percent_before_Mac: 2
gt_50_percent_before_Mac: 0
stall_proportion_bin_same_before_after: 0
stall_proportion_bin_lower_before_after: 0
stall_proportion_bin_upper_before_after: 0
average_stall_proportion_before: 0.0273466
average_stall_proportion_after: 0.0263768
Critical_IP_Detector_Accuracy_70: 0
Critical_IP_Detector_Accuracy_80: 0
Critical_IP_Detector_Accuracy_90: 0
Critical_IP_Detector_Coverage_70: 0
Critical_IP_Detector_Coverage_80: 0
Critical_IP_Detector_Coverage_90: 0
stat_90_percent_critical_ip_stalls_freq: 146492
stat_90_percent_non_critical_ip_stalls_freq: 18446744073709405124
AVERAGE_ROB_Occupancy_90_Percent_Critical_IP_Stalls: 292.727
AVERAGE_ROB_Occupancy_90_Percent_Non_Critical_IP_Stalls: 1.48479e-11
Critical_IP_ROB_Stalls_Bucket_0: 269
Non-critical_IP_ROB_Stalls_Bucket_0: 1044093
Critical_IP_ROB_Stalls_Bucket_1: 1937
Non-critical_IP_ROB_Stalls_Bucket_1: 791094
Critical_IP_ROB_Stalls_Bucket_2: 1719
Non-critical_IP_ROB_Stalls_Bucket_2: 384861
Critical_IP_ROB_Stalls_Bucket_3: 337
Non-critical_IP_ROB_Stalls_Bucket_3: 195526
Critical_IP_ROB_Stalls_Bucket_4: 137
Non-critical_IP_ROB_Stalls_Bucket_4: 83348
Critical_IP_ROB_Stalls_Bucket_5: 62
Non-critical_IP_ROB_Stalls_Bucket_5: 49537
Critical_IP_ROB_Stalls_Bucket_6: 1205
Non-critical_IP_ROB_Stalls_Bucket_6: 334413
0 => IPs accounting for >50 percent of stalls, 1 => 55, 2 => 60, 3 => 65 and so on till 90.
percent50: inf num IPs:  1
percent55: inf num IPs: 1
percent60: inf num IPs: 1
percent65: inf num IPs: 1
percent70: inf num IPs: 1
percent75: inf num IPs: 1
percent80: inf num IPs: 1
percent85: inf num IPs: 1
percent90: inf num IPs: 1
Critical_ROB_Stalls_Percent_0_Bucket_0: 1845
Non-critical_ROB_Stalls_Percent_0_Bucket_0: 1042517
Critical_ROB_Stalls_Percent_0_Bucket_1: 5677
Non-critical_ROB_Stalls_Percent_0_Bucket_1: 787354
Critical_ROB_Stalls_Percent_0_Bucket_2: 12028
Non-critical_ROB_Stalls_Percent_0_Bucket_2: 374552
Critical_ROB_Stalls_Percent_0_Bucket_3: 10854
Non-critical_ROB_Stalls_Percent_0_Bucket_3: 185009
Critical_ROB_Stalls_Percent_0_Bucket_4: 7823
Non-critical_ROB_Stalls_Percent_0_Bucket_4: 75662
Critical_ROB_Stalls_Percent_0_Bucket_5: 7638
Non-critical_ROB_Stalls_Percent_0_Bucket_5: 41961
Critical_ROB_Stalls_Percent_0_Bucket_6: 100627
Non-critical_ROB_Stalls_Percent_0_Bucket_6: 234991
Critical_ROB_Stalls_Percent_1_Bucket_0: 1845
Non-critical_ROB_Stalls_Percent_1_Bucket_0: 1042517
Critical_ROB_Stalls_Percent_1_Bucket_1: 5677
Non-critical_ROB_Stalls_Percent_1_Bucket_1: 787354
Critical_ROB_Stalls_Percent_1_Bucket_2: 12028
Non-critical_ROB_Stalls_Percent_1_Bucket_2: 374552
Critical_ROB_Stalls_Percent_1_Bucket_3: 10854
Non-critical_ROB_Stalls_Percent_1_Bucket_3: 185009
Critical_ROB_Stalls_Percent_1_Bucket_4: 7823
Non-critical_ROB_Stalls_Percent_1_Bucket_4: 75662
Critical_ROB_Stalls_Percent_1_Bucket_5: 7638
Non-critical_ROB_Stalls_Percent_1_Bucket_5: 41961
Critical_ROB_Stalls_Percent_1_Bucket_6: 100627
Non-critical_ROB_Stalls_Percent_1_Bucket_6: 234991
Critical_ROB_Stalls_Percent_2_Bucket_0: 1845
Non-critical_ROB_Stalls_Percent_2_Bucket_0: 1042517
Critical_ROB_Stalls_Percent_2_Bucket_1: 5677
Non-critical_ROB_Stalls_Percent_2_Bucket_1: 787354
Critical_ROB_Stalls_Percent_2_Bucket_2: 12028
Non-critical_ROB_Stalls_Percent_2_Bucket_2: 374552
Critical_ROB_Stalls_Percent_2_Bucket_3: 10854
Non-critical_ROB_Stalls_Percent_2_Bucket_3: 185009
Critical_ROB_Stalls_Percent_2_Bucket_4: 7823
Non-critical_ROB_Stalls_Percent_2_Bucket_4: 75662
Critical_ROB_Stalls_Percent_2_Bucket_5: 7638
Non-critical_ROB_Stalls_Percent_2_Bucket_5: 41961
Critical_ROB_Stalls_Percent_2_Bucket_6: 100627
Non-critical_ROB_Stalls_Percent_2_Bucket_6: 234991
Critical_ROB_Stalls_Percent_3_Bucket_0: 1845
Non-critical_ROB_Stalls_Percent_3_Bucket_0: 1042517
Critical_ROB_Stalls_Percent_3_Bucket_1: 5677
Non-critical_ROB_Stalls_Percent_3_Bucket_1: 787354
Critical_ROB_Stalls_Percent_3_Bucket_2: 12028
Non-critical_ROB_Stalls_Percent_3_Bucket_2: 374552
Critical_ROB_Stalls_Percent_3_Bucket_3: 10854
Non-critical_ROB_Stalls_Percent_3_Bucket_3: 185009
Critical_ROB_Stalls_Percent_3_Bucket_4: 7823
Non-critical_ROB_Stalls_Percent_3_Bucket_4: 75662
Critical_ROB_Stalls_Percent_3_Bucket_5: 7638
Non-critical_ROB_Stalls_Percent_3_Bucket_5: 41961
Critical_ROB_Stalls_Percent_3_Bucket_6: 100627
Non-critical_ROB_Stalls_Percent_3_Bucket_6: 234991
Critical_ROB_Stalls_Percent_4_Bucket_0: 1845
Non-critical_ROB_Stalls_Percent_4_Bucket_0: 1042517
Critical_ROB_Stalls_Percent_4_Bucket_1: 5677
Non-critical_ROB_Stalls_Percent_4_Bucket_1: 787354
Critical_ROB_Stalls_Percent_4_Bucket_2: 12028
Non-critical_ROB_Stalls_Percent_4_Bucket_2: 374552
Critical_ROB_Stalls_Percent_4_Bucket_3: 10854
Non-critical_ROB_Stalls_Percent_4_Bucket_3: 185009
Critical_ROB_Stalls_Percent_4_Bucket_4: 7823
Non-critical_ROB_Stalls_Percent_4_Bucket_4: 75662
Critical_ROB_Stalls_Percent_4_Bucket_5: 7638
Non-critical_ROB_Stalls_Percent_4_Bucket_5: 41961
Critical_ROB_Stalls_Percent_4_Bucket_6: 100627
Non-critical_ROB_Stalls_Percent_4_Bucket_6: 234991
Critical_ROB_Stalls_Percent_5_Bucket_0: 1845
Non-critical_ROB_Stalls_Percent_5_Bucket_0: 1042517
Critical_ROB_Stalls_Percent_5_Bucket_1: 5677
Non-critical_ROB_Stalls_Percent_5_Bucket_1: 787354
Critical_ROB_Stalls_Percent_5_Bucket_2: 12028
Non-critical_ROB_Stalls_Percent_5_Bucket_2: 374552
Critical_ROB_Stalls_Percent_5_Bucket_3: 10854
Non-critical_ROB_Stalls_Percent_5_Bucket_3: 185009
Critical_ROB_Stalls_Percent_5_Bucket_4: 7823
Non-critical_ROB_Stalls_Percent_5_Bucket_4: 75662
Critical_ROB_Stalls_Percent_5_Bucket_5: 7638
Non-critical_ROB_Stalls_Percent_5_Bucket_5: 41961
Critical_ROB_Stalls_Percent_5_Bucket_6: 100627
Non-critical_ROB_Stalls_Percent_5_Bucket_6: 234991
Critical_ROB_Stalls_Percent_6_Bucket_0: 1845
Non-critical_ROB_Stalls_Percent_6_Bucket_0: 1042517
Critical_ROB_Stalls_Percent_6_Bucket_1: 5677
Non-critical_ROB_Stalls_Percent_6_Bucket_1: 787354
Critical_ROB_Stalls_Percent_6_Bucket_2: 12028
Non-critical_ROB_Stalls_Percent_6_Bucket_2: 374552
Critical_ROB_Stalls_Percent_6_Bucket_3: 10854
Non-critical_ROB_Stalls_Percent_6_Bucket_3: 185009
Critical_ROB_Stalls_Percent_6_Bucket_4: 7823
Non-critical_ROB_Stalls_Percent_6_Bucket_4: 75662
Critical_ROB_Stalls_Percent_6_Bucket_5: 7638
Non-critical_ROB_Stalls_Percent_6_Bucket_5: 41961
Critical_ROB_Stalls_Percent_6_Bucket_6: 100627
Non-critical_ROB_Stalls_Percent_6_Bucket_6: 234991
Critical_ROB_Stalls_Percent_7_Bucket_0: 1845
Non-critical_ROB_Stalls_Percent_7_Bucket_0: 1042517
Critical_ROB_Stalls_Percent_7_Bucket_1: 5677
Non-critical_ROB_Stalls_Percent_7_Bucket_1: 787354
Critical_ROB_Stalls_Percent_7_Bucket_2: 12028
Non-critical_ROB_Stalls_Percent_7_Bucket_2: 374552
Critical_ROB_Stalls_Percent_7_Bucket_3: 10854
Non-critical_ROB_Stalls_Percent_7_Bucket_3: 185009
Critical_ROB_Stalls_Percent_7_Bucket_4: 7823
Non-critical_ROB_Stalls_Percent_7_Bucket_4: 75662
Critical_ROB_Stalls_Percent_7_Bucket_5: 7638
Non-critical_ROB_Stalls_Percent_7_Bucket_5: 41961
Critical_ROB_Stalls_Percent_7_Bucket_6: 100627
Non-critical_ROB_Stalls_Percent_7_Bucket_6: 234991
Critical_ROB_Stalls_Percent_8_Bucket_0: 1845
Non-critical_ROB_Stalls_Percent_8_Bucket_0: 1042517
Critical_ROB_Stalls_Percent_8_Bucket_1: 5677
Non-critical_ROB_Stalls_Percent_8_Bucket_1: 787354
Critical_ROB_Stalls_Percent_8_Bucket_2: 12028
Non-critical_ROB_Stalls_Percent_8_Bucket_2: 374552
Critical_ROB_Stalls_Percent_8_Bucket_3: 10854
Non-critical_ROB_Stalls_Percent_8_Bucket_3: 185009
Critical_ROB_Stalls_Percent_8_Bucket_4: 7823
Non-critical_ROB_Stalls_Percent_8_Bucket_4: 75662
Critical_ROB_Stalls_Percent_8_Bucket_5: 7638
Non-critical_ROB_Stalls_Percent_8_Bucket_5: 41961
Critical_ROB_Stalls_Percent_8_Bucket_6: 100627
Non-critical_ROB_Stalls_Percent_8_Bucket_6: 234991
Average ROB occupancy Load Stall Begin: 100.483
Average ROB occupancy Load Stall End: 109.667
Min ROB occupancy Load Stall Begin: 1
Max ROB occupancy Load Stall Begin: 352
Min ROB occupancy Load Stall End: 1
Max ROB occupancy Load Stall End: 352
Average ROB occupancy Critical Load Stall Begin: 146.644
Average ROB occupancy Critical Load Stall End: 158.983
Min ROB occupancy Critical Load Stall Begin: 5
Max ROB occupancy Critical Load Stall Begin: 352
Min ROB occupancy Critical Load Stall End: 5
Max ROB occupancy Critical Load Stall End: 352
 ROB Load Stall Begin Bucket Count 0: 1306518
 ROB Load Stall End Bucket Count 0: 1044362
 ROB Critical Load Stall Begin Bucket Count 0: 286
 ROB Critical Load Stall End Bucket Count 0: 187
 ROB Load Stall Begin Bucket Count 1: 641431
 ROB Load Stall End Bucket Count 1: 793031
 ROB Critical Load Stall Begin Bucket Count 1: 1946
 ROB Critical Load Stall End Bucket Count 1: 1476
 ROB Load Stall Begin Bucket Count 2: 335504
 ROB Load Stall End Bucket Count 2: 386580
 ROB Critical Load Stall Begin Bucket Count 2: 937
 ROB Critical Load Stall End Bucket Count 2: 1409
 ROB Load Stall Begin Bucket Count 3: 163370
 ROB Load Stall End Bucket Count 3: 195863
 ROB Critical Load Stall Begin Bucket Count 3: 173
 ROB Critical Load Stall End Bucket Count 3: 225
 ROB Load Stall Begin Bucket Count 4: 71391
 ROB Load Stall End Bucket Count 4: 83485
 ROB Critical Load Stall Begin Bucket Count 4: 73
 ROB Critical Load Stall End Bucket Count 4: 96
 ROB Load Stall Begin Bucket Count 5: 43935
 ROB Load Stall End Bucket Count 5: 49599
 ROB Critical Load Stall Begin Bucket Count 5: 57
 ROB Critical Load Stall End Bucket Count 5: 39
 ROB Load Stall Begin Bucket Count 6: 326389
 ROB Load Stall End Bucket Count 6: 335618
 ROB Critical Load Stall Begin Bucket Count 6: 936
 ROB Critical Load Stall End Bucket Count 6: 977
PIST Tag Read Accesses: 0
PIST Read Accesses: 0
PIST Tag Write Accesses: 0
PIST Write Accesses: 0
Criticality detector called times: 0
Max global_stall_cycles_count: 0
Threshold Modified: 0 times, factor: 0
Sturdy critical IP cache stats: 
 Unused entries: 0
CIC Tag Read Accesses: 0
CIC Read Accesses: 0
CIC Tag Write Accesses: 0
CIC Write Accesses: 0
Wobbly critical IP cache stats: 
 Unused entries: 0
CIC Tag Read Accesses: 147405274
CIC Read Accesses: 0
CIC Tag Write Accesses: 69183
CIC Write Accesses: 0
ITLB TOTAL     ACCESS:    8767366  HIT:    8588664  MISS:     178702  HIT %:    97.9617  MISS %:    2.03826   MPKI: 3.57404
ITLB LOAD TRANSLATION ACCESS:    8149007  HIT:    8137118  MISS:      11889  HIT %:    99.8541  MISS %:   0.145895   MPKI: 0.23778
ITLB TRANSLATION FROM L1D PREFETCHER ACCESS:     618359  HIT:     451546  MISS:     166813  HIT %:    73.0233  MISS %:    26.9767   MPKI: 3.33626
ITLB PREFETCH  REQUESTED:          0  ISSUED:          0  USEFUL:     141594  USELESS:      25215
ITLB USEFUL LOAD PREFETCHES:     141594 PREFETCH ISSUED TO LOWER LEVEL:          0  ACCURACY: inf
ITLB TIMELY PREFETCHES:     141594 LATE PREFETCHES: 18 DROPPED PREFETCHES: 17
ITLB PREFETCHES SAME FILL-ORIGIN LEVEL: 0 DIFFERENT FILL-ORIGIN LEVEL: 0
ITLB AVERAGE MISS LATENCY: 4754.07 cycles
ITLB RQ	ACCESS:   11238484	FORWARD:          0	MERGED:    2456179	TO_CACHE:    8782305

DTLB TOTAL     ACCESS:   11597042  HIT:   11280207  MISS:     316835  HIT %:     97.268  MISS %:    2.73203   MPKI: 6.3367
DTLB LOAD TRANSLATION ACCESS:   11597042  HIT:   11280207  MISS:     316835  HIT %:     97.268  MISS %:    2.73203   MPKI: 6.3367
DTLB PREFETCH  REQUESTED:          0  ISSUED:          0  USEFUL:          0  USELESS:          0
DTLB USEFUL LOAD PREFETCHES:          0 PREFETCH ISSUED TO LOWER LEVEL:          0  ACCURACY: -nan
DTLB TIMELY PREFETCHES:          0 LATE PREFETCHES: 0 DROPPED PREFETCHES: 0
DTLB PREFETCHES SAME FILL-ORIGIN LEVEL: 0 DIFFERENT FILL-ORIGIN LEVEL: 0
DTLB AVERAGE MISS LATENCY: 10.3732 cycles
DTLB RQ	ACCESS:   13865821	FORWARD:          0	MERGED:    2252133	TO_CACHE:   11613688

STLB TOTAL     ACCESS:     498074  HIT:     493868  MISS:       4206  HIT %:    99.1555  MISS %:   0.844453   MPKI: 0.08412
STLB LOAD TRANSLATION ACCESS:     328706  HIT:     324812  MISS:       3894  HIT %:    98.8154  MISS %:    1.18465   MPKI: 0.07788
STLB TRANSLATION FROM L1D PREFETCHER ACCESS:     169368  HIT:     169056  MISS:        312  HIT %:    99.8158  MISS %:   0.184214   MPKI: 0.00624
STLB PREFETCH  REQUESTED:          0  ISSUED:          0  USEFUL:        239  USELESS:         57
STLB USEFUL LOAD PREFETCHES:        239 PREFETCH ISSUED TO LOWER LEVEL:          0  ACCURACY: inf
STLB TIMELY PREFETCHES:        239 LATE PREFETCHES: 0 DROPPED PREFETCHES: 17
STLB PREFETCHES SAME FILL-ORIGIN LEVEL: 0 DIFFERENT FILL-ORIGIN LEVEL: 0
STLB AVERAGE MISS LATENCY: 127.102 cycles
STLB RQ	ACCESS:     498940	FORWARD:          0	MERGED:        849	TO_CACHE:     498091

STLB Hit, L1D data hit: 0
STLB Hit, L2C data hit: 0
STLB Hit, LLC data hit: 0
STLB Hit, LLC data miss: 0
STLB STLB hints to L2: 0
L1D TOTAL     ACCESS:   13696424  HIT:   13129879  MISS:     566545  HIT %:    95.8636  MISS %:    4.13644   MPKI: 11.3309
L1D LOAD      ACCESS:    8771243  HIT:    8281358  MISS:     489885  HIT %:    94.4149  MISS %:    5.58513   MPKI: 9.7977
L1D RFO       ACCESS:    4922329  HIT:    4847259  MISS:      75070  HIT %:    98.4749  MISS %:    1.52509   MPKI: 1.5014
L1D PREFETCH  ACCESS:       2852  HIT:       1262  MISS:       1590  HIT %:    44.2496  MISS %:    55.7504   MPKI: 0.0318
L1D PREFETCH  REQUESTED:       6772  ISSUED:       6772  USEFUL:        656  USELESS:        969
L1D USEFUL LOAD PREFETCHES:        656 PREFETCH ISSUED TO LOWER LEVEL:       2064  ACCURACY: 31.7829
L1D TIMELY PREFETCHES:        656 LATE PREFETCHES: 20 DROPPED PREFETCHES: 0
L1D PREFETCHES SAME FILL-ORIGIN LEVEL: 2064 DIFFERENT FILL-ORIGIN LEVEL: 0
L1D AVERAGE MISS LATENCY: 60802.3 cycles
L1D RQ	ACCESS:   12803845	FORWARD:          0	MERGED:    3889756	TO_CACHE:    8828805
L1D WQ	ACCESS:    5437654	FORWARD:      85284	MERGED:     400638	TO_CACHE:    5037016
L1D PQ	ACCESS:       3386	FORWARD:          0	MERGED:          0	TO_CACHE:       3386

L1D UNIQUE REGIONS ACCESSED: 0
L1D REGIONS CONFLICTS: 0
L1D Cross Page Prefetch Requests: 0
L1D Same Page Prefetch Requests: 846336
L1D ROI Sum of L1D PQ occupancy: 44136
L1D PREFETCHES PUSHED FROM L2C: 0
L1I TOTAL     ACCESS:   11207504  HIT:   10044652  MISS:    1162852  HIT %:    89.6243  MISS %:    10.3757   MPKI: 23.257
L1I LOAD      ACCESS:    9641587  HIT:    9598315  MISS:      43272  HIT %:    99.5512  MISS %:   0.448806   MPKI: 0.86544
L1I PREFETCH  ACCESS:    1565917  HIT:     446337  MISS:    1119580  HIT %:    28.5032  MISS %:    71.4968   MPKI: 22.3916
L1I PREFETCH  REQUESTED:    1619150  ISSUED:    1617300  USEFUL:     844815  USELESS:     274819
L1I USEFUL LOAD PREFETCHES:     844815 PREFETCH ISSUED TO LOWER LEVEL:    1126087  ACCURACY: 75.0222
L1I TIMELY PREFETCHES:     844815 LATE PREFETCHES: 6507 DROPPED PREFETCHES: 22
L1I PREFETCHES SAME FILL-ORIGIN LEVEL: 1126087 DIFFERENT FILL-ORIGIN LEVEL: 0
L1I AVERAGE MISS LATENCY: 246139 cycles
L1I RQ	ACCESS:   14354444	FORWARD:          0	MERGED:    4706606	TO_CACHE:    9647838
L1I PQ	ACCESS:    1617300	FORWARD:          0	MERGED:      26654	TO_CACHE:    1590646

BTB TOTAL     ACCESS:    6145704  HIT:    5759281  MISS:     386423  HIT %:    93.7123  MISS %:    6.28769   MPKI: 7.72846
BTB BRANCH_DIRECT_JUMP	ACCESS:     735331  HIT:     732025  MISS:       3306
BTB BRANCH_INDIRECT	ACCESS:     269194  HIT:     145703  MISS:     123491
BTB BRANCH_CONDITIONAL	ACCESS:    3930750  HIT:    3920624  MISS:      10126
BTB BRANCH_DIRECT_CALL	ACCESS:     368758  HIT:     363374  MISS:       5384
BTB BRANCH_INDIRECT_CALL	ACCESS:     226975  HIT:     162973  MISS:      64002
BTB BRANCH_RETURN	ACCESS:     614696  HIT:     434582  MISS:     180114
BTB BRANCH_OTHER ACCESS:          0  HIT:          0  MISS:          0

L2C TOTAL     ACCESS:    1965823  HIT:    1788235  MISS:     177588  HIT %:    90.9662  MISS %:    9.03377   MPKI: 3.55176
L2C LOAD      ACCESS:     526503  HIT:     408454  MISS:     118049  HIT %:    77.5787  MISS %:    22.4213   MPKI: 2.36098
L2C DATA LOAD MPKI: 2.27638
L2C INSTRUCTION LOAD MPKI: 0.0846
L2C RFO       ACCESS:      74608  HIT:      29423  MISS:      45185  HIT %:    39.4368  MISS %:    60.5632   MPKI: 0.9037
L2C PREFETCH  ACCESS:    1128151  HIT:    1117627  MISS:      10524  HIT %:    99.0671  MISS %:   0.932854   MPKI: 0.21048
L2C DATA PREFETCH MPKI: 0.04054
L2C INSTRUCTION PREFETCH MPKI: 0.16994
L2C WRITEBACK ACCESS:     232146  HIT:     230104  MISS:       2042  HIT %:    99.1204  MISS %:   0.879619   MPKI: 0.04084
L2C LOAD TRANSLATION ACCESS:       4062  HIT:       2484  MISS:       1578  HIT %:    61.1521  MISS %:    38.8479   MPKI: 0.03156
L2C TRANSLATION FROM L1D PREFETCHER ACCESS:        353  HIT:        143  MISS:        210  HIT %:    40.5099  MISS %:    59.4901   MPKI: 0.0042
L2C PREFETCH  REQUESTED:          0  ISSUED:          0  USEFUL:       1156  USELESS:      12071
L2C USEFUL LOAD PREFETCHES:       1156 PREFETCH ISSUED TO LOWER LEVEL:      10524  ACCURACY: 10.9844
L2C TIMELY PREFETCHES:       1156 LATE PREFETCHES: 0 DROPPED PREFETCHES: 0
L2C PREFETCHES SAME FILL-ORIGIN LEVEL: 0 DIFFERENT FILL-ORIGIN LEVEL: 0
L2C AVERAGE MISS LATENCY: 148.111 cycles
L2C RQ	ACCESS:     605661	FORWARD:          0	MERGED:          0	TO_CACHE:     605526
L2C WQ	ACCESS:     232146	FORWARD:        135	MERGED:          0	TO_CACHE:     232146
L2C PQ	ACCESS:    1128151	FORWARD:          0	MERGED:          0	TO_CACHE:    1128151

L2C Instructions Evicting Data 9435
L2C Translations Evicting Data 1460
L2C Data Evicting Data 147345
L2C Instructions Evicting Instructions 3007
L2C Translations Evicting Instructions 284
L2C Data Evicting Instructions 12091
L2C Instructions Evicting Translations 285
L2C Translations Evicting Translations 44
L2C Data Evicting Translations 1595
L2C Dense regions hint from L2: 0
PSCL5 TOTAL     ACCESS:       4223  HIT:       4223  MISS:          0  HIT %:        100  MISS %:          0   MPKI: 0
PSCL5 LOAD TRANSLATION ACCESS:       3894  HIT:       3894  MISS:          0  HIT %:        100  MISS %:          0   MPKI: 0
PSCL5 TRANSLATION FROM L1D PREFETCHER ACCESS:        329  HIT:        329  MISS:          0  HIT %:        100  MISS %:          0   MPKI: 0
PSCL5 PREFETCH  REQUESTED:          0  ISSUED:          0  USEFUL:          0  USELESS:          0
PSCL5 USEFUL LOAD PREFETCHES:          0 PREFETCH ISSUED TO LOWER LEVEL:          0  ACCURACY: -nan
PSCL5 TIMELY PREFETCHES:          0 LATE PREFETCHES: 0 DROPPED PREFETCHES: 0
PSCL5 PREFETCHES SAME FILL-ORIGIN LEVEL: 0 DIFFERENT FILL-ORIGIN LEVEL: 0

PSCL4 TOTAL     ACCESS:       3933  HIT:       3926  MISS:          7  HIT %:     99.822  MISS %:   0.177981   MPKI: 0.00014
PSCL4 LOAD TRANSLATION ACCESS:       3633  HIT:       3626  MISS:          7  HIT %:    99.8073  MISS %:   0.192678   MPKI: 0.00014
PSCL4 TRANSLATION FROM L1D PREFETCHER ACCESS:        300  HIT:        300  MISS:          0  HIT %:        100  MISS %:          0   MPKI: 0
PSCL4 PREFETCH  REQUESTED:          0  ISSUED:          0  USEFUL:          0  USELESS:          0
PSCL4 USEFUL LOAD PREFETCHES:          0 PREFETCH ISSUED TO LOWER LEVEL:          0  ACCURACY: -nan
PSCL4 TIMELY PREFETCHES:          0 LATE PREFETCHES: 0 DROPPED PREFETCHES: 0
PSCL4 PREFETCHES SAME FILL-ORIGIN LEVEL: 0 DIFFERENT FILL-ORIGIN LEVEL: 0

PSCL3 TOTAL     ACCESS:       4170  HIT:       4153  MISS:         17  HIT %:    99.5923  MISS %:   0.407674   MPKI: 0.00034
PSCL3 LOAD TRANSLATION ACCESS:       3849  HIT:       3832  MISS:         17  HIT %:    99.5583  MISS %:   0.441673   MPKI: 0.00034
PSCL3 TRANSLATION FROM L1D PREFETCHER ACCESS:        321  HIT:        321  MISS:          0  HIT %:        100  MISS %:          0   MPKI: 0
PSCL3 PREFETCH  REQUESTED:          0  ISSUED:          0  USEFUL:          0  USELESS:          0
PSCL3 USEFUL LOAD PREFETCHES:          0 PREFETCH ISSUED TO LOWER LEVEL:          0  ACCURACY: -nan
PSCL3 TIMELY PREFETCHES:          0 LATE PREFETCHES: 0 DROPPED PREFETCHES: 0
PSCL3 PREFETCHES SAME FILL-ORIGIN LEVEL: 0 DIFFERENT FILL-ORIGIN LEVEL: 0

PSCL2 TOTAL     ACCESS:       4223  HIT:       4050  MISS:        173  HIT %:    95.9034  MISS %:    4.09661   MPKI: 0.00346
PSCL2 LOAD TRANSLATION ACCESS:       3916  HIT:       3743  MISS:        173  HIT %:    95.5822  MISS %:    4.41777   MPKI: 0.00346
PSCL2 TRANSLATION FROM L1D PREFETCHER ACCESS:        307  HIT:        307  MISS:          0  HIT %:        100  MISS %:          0   MPKI: 0
PSCL2 PREFETCH  REQUESTED:          0  ISSUED:          0  USEFUL:          0  USELESS:          0
PSCL2 USEFUL LOAD PREFETCHES:          0 PREFETCH ISSUED TO LOWER LEVEL:          0  ACCURACY: -nan
PSCL2 TIMELY PREFETCHES:          0 LATE PREFETCHES: 0 DROPPED PREFETCHES: 0
PSCL2 PREFETCHES SAME FILL-ORIGIN LEVEL: 0 DIFFERENT FILL-ORIGIN LEVEL: 0

LLC TOTAL     ACCESS:     243951  HIT:     115466  MISS:     128485  HIT %:    47.3316  MISS %:    52.6684   MPKI: 2.5697
LLC LOAD      ACCESS:     118047  HIT:      40756  MISS:      77291  HIT %:    34.5252  MISS %:    65.4748   MPKI: 1.54582
LLC RFO       ACCESS:      45185  HIT:       5012  MISS:      40173  HIT %:    11.0922  MISS %:    88.9078   MPKI: 0.80346
LLC PREFETCH  ACCESS:      10524  HIT:       3743  MISS:       6781  HIT %:    35.5663  MISS %:    64.4337   MPKI: 0.13562
LLC WRITEBACK ACCESS:      68407  HIT:      65287  MISS:       3120  HIT %:    95.4391  MISS %:    4.56094   MPKI: 0.0624
LLC LOAD TRANSLATION ACCESS:       1578  HIT:        582  MISS:        996  HIT %:    36.8821  MISS %:    63.1179   MPKI: 0.01992
LLC TRANSLATION FROM L1D PREFETCHER ACCESS:        210  HIT:         86  MISS:        124  HIT %:    40.9524  MISS %:    59.0476   MPKI: 0.00248
LLC PREFETCH  REQUESTED:          0  ISSUED:          0  USEFUL:        911  USELESS:      12593
LLC USEFUL LOAD PREFETCHES:        911 PREFETCH ISSUED TO LOWER LEVEL:       6781  ACCURACY: 13.4346
LLC TIMELY PREFETCHES:        911 LATE PREFETCHES: 0 DROPPED PREFETCHES: 0
LLC PREFETCHES SAME FILL-ORIGIN LEVEL: 0 DIFFERENT FILL-ORIGIN LEVEL: 0
LLC AVERAGE MISS LATENCY: 163.053 cycles
LLC RQ	ACCESS:     165022	FORWARD:          0	MERGED:          0	TO_CACHE:     165020
LLC WQ	ACCESS:      68407	FORWARD:          2	MERGED:          0	TO_CACHE:      68407
LLC PQ	ACCESS:      10524	FORWARD:          0	MERGED:          0	TO_CACHE:      10524

LLC Dense regions hint to LLC: 0

RAW hits: 1076090
Loads Generated: 13879936
Loads sent to L1D: 12803845
Stores Generated: 5437650
Stores sent to L1D: 5437654
Major fault: 0 Minor fault: 4494
Allocated PAGES: 4494
I-Shadow cache 408 bytes
Touched + WorthPF tables 6144 bytes 
MMA filter 174 bytes 
FNL filter 272 bytes 
TOTAL PREFETCHER STORAGE SIZE: 25174 bytes
CPU 0 L1I next line prefetcher final stats

stream: 
stream:times selected: 947238
stream:pref_filled: 197393
stream:pref_useful: 38617
stream:pref_late: 6380
stream:misses: 29080
stream:misses_by_poll: 0

CS: 
CS:times selected: 94697
CS:pref_filled: 62863
CS:pref_useful: 52310
CS:pref_late: 558
CS:misses: 9431
CS:misses_by_poll: 0

CPLX: 
CPLX:times selected: 845847
CPLX:pref_filled: 55990
CPLX:pref_useful: 10556
CPLX:pref_late: 1366
CPLX:misses: 124233
CPLX:misses_by_poll: 5

NL_L1: 
NL:times selected: 5371
NL:pref_filled: 1111
NL:pref_useful: 277
NL:pref_late: 19
NL:misses: 926
NL:misses_by_poll: 0

total selections: 1893153
total_filled: 1590
total_useful: 656
total_late: 8605
total_polluted: 5
total_misses_after_warmup: 1069
conflicts: 8
Degree Incremented Times: 24219
Degree Decremented Times: 64934

L1 IP Table Write Accesses: 8279
L1 IP Table Read Accesses: 8271
L1 RST Write Accesses: 3265
L1 RST Read Accesses: 6530
L1 CSPT Write Accesses: 3265
L1 CSPT Read Accesses: 6454
L1 RR Filter Tag Write Accesses: 3386
L1 RR Filter Tag Read Accesses: 130659
L1 IP Table Tag Write Accesses: 8289
L1 IP Table Tag Read Accesses: 8289
L1 RST Tag Write Accesses: 0
L1 RST Tag Read Accesses: 29251
L1 RR Filter Write Accesses: 0
L1 RR Filter Read Accesses: 4263
test: 335928

DRAM Statistics
 CHANNEL 0
 RQ ROW_BUFFER_HIT:      25625  ROW_BUFFER_MISS:      99740
 DBUS_CONGESTED:         48
 WQ ROW_BUFFER_HIT:      11369  ROW_BUFFER_MISS:      46176  FULL:          0

 AVG_CONGESTED_CYCLE: 4
 All warmup complete: 2
Channel 0 Bank busy for read cycles: 0
Channel 0 Bank busy for write cycles: 0
Channel 0
Rank 0
0banks busy for read cycles: 55323434
0banks busy for write cycles: 22169
1banks busy for read cycles: 7457847
1banks busy for write cycles: 3271862
2banks busy for read cycles: 2079195
2banks busy for write cycles: 1122172
3banks busy for read cycles: 686158
3banks busy for write cycles: 534189
4banks busy for read cycles: 198901
4banks busy for write cycles: 277859
5banks busy for read cycles: 102124
5banks busy for write cycles: 152755
6banks busy for read cycles: 51903
6banks busy for write cycles: 85692
7banks busy for read cycles: 40689
7banks busy for write cycles: 66920
8banks busy for read cycles: 86936
8banks busy for write cycles: 334847

CPU 0 Branch Prediction Accuracy: 98.8607% MPKI: 1.8623 Average ROB Occupancy at Mispredict: 74.7568
Branch types
NOT_BRANCH: 41826774 83.6535%
BRANCH_DIRECT_JUMP: 735331 1.47066%
BRANCH_INDIRECT: 269194 0.538388%
BRANCH_CONDITIONAL: 5957947 11.9159%
BRANCH_DIRECT_CALL: 368758 0.737516%
BRANCH_INDIRECT_CALL: 226975 0.45395%
BRANCH_RETURN: 614696 1.22939%
BRANCH_OTHER: 0 0%

DRAM PAGES: 1048576
Allocated PAGES: 4494
