
*** ChampSim Multicore Out-of-Order Simulator ***

Warmup Instructions: 50000000
Simulation Instructions: 50000000
Number of CPUs: 1
LLC sets: 2048
LLC ways: 16
Off-chip DRAM Size: 4096 MB Channels: 1 Width: 64-bit Data Rate: 6400 MT/s
CPU 0 runs ../IPC-traces//client_005.champsimtrace.xz
.xz
NUM_OF_IPS_IN_CRITICAL_IP_TRAINING: 64
NUM_OF_CRITICAL_IP_TRAINING_TABLE_WAYS: 2
NUM_OF_CRITICAL_IP_TRAINING_TABLE_SETS: 32
WOBBLY_CRITICAL_IP_CACHE_SETS: 32
WOBBLY_CRITICAL_IP_CACHE_WAYS: 4
BTB has LRU replacement policy
ITLB has LRU replacement policy
DTLB has LRU replacement policy
STLB has LRU replacement policy
CPU 0 L1I next line prefetcher
L1I has LRU replacement policy
IP Table Entries: 256
L1D has LRU replacement policy
Initialize SRRIP state for L2C
Initialize DRRIP state for LLC
Heartbeat CPU 0 instructions: 10000001 cycles: 2800344 heartbeat IPC: 3.57099 cumulative IPC: 3.57099 (Simulation time: 0 hr 2 min 54 sec) 
Heartbeat CPU 0 instructions: 20000002 cycles: 5596055 heartbeat IPC: 3.57691 cumulative IPC: 3.57395 (Simulation time: 0 hr 5 min 21 sec) 
Heartbeat CPU 0 instructions: 30000001 cycles: 8444780 heartbeat IPC: 3.51034 cumulative IPC: 3.55249 (Simulation time: 0 hr 7 min 49 sec) 
Heartbeat CPU 0 instructions: 40000000 cycles: 11291417 heartbeat IPC: 3.51292 cumulative IPC: 3.54251 (Simulation time: 0 hr 9 min 55 sec) 
Heartbeat CPU 0 instructions: 50000001 cycles: 14064804 heartbeat IPC: 3.6057 cumulative IPC: 3.55497 (Simulation time: 0 hr 11 min 46 sec) 

Warmup complete CPU 0 instructions: 50000001 cycles: 14064804 (Simulation time: 0 hr 11 min 46 sec) 

Heartbeat CPU 0 instructions: 60000001 cycles: 29965867 heartbeat IPC: 0.628889 cumulative IPC: 0.628889 (Simulation time: 0 hr 14 min 8 sec) 
Heartbeat CPU 0 instructions: 70000002 cycles: 44448422 heartbeat IPC: 0.690486 cumulative IPC: 0.658249 (Simulation time: 0 hr 16 min 27 sec) 
Heartbeat CPU 0 instructions: 80000003 cycles: 57565867 heartbeat IPC: 0.762344 cumulative IPC: 0.689638 (Simulation time: 0 hr 18 min 51 sec) 
Heartbeat CPU 0 instructions: 90000002 cycles: 73184980 heartbeat IPC: 0.640241 cumulative IPC: 0.676588 (Simulation time: 0 hr 21 min 22 sec) 
Heartbeat CPU 0 instructions: 100000002 cycles: 88508718 heartbeat IPC: 0.652582 cumulative IPC: 0.671647 (Simulation time: 0 hr 23 min 21 sec) 
Finished CPU 0 instructions: 50000001 cycles: 74443914 cumulative IPC: 0.671647 (Simulation time: 0 hr 23 min 21 sec) 

ChampSim completed all CPUs

Region of Interest Statistics

CPU 0 cumulative IPC: 0.671647 instructions: 50000001 cycles: 74443914

CPU 0 Average Load ROB stall cycles: 1.73102e+07
CPU 0 Fraction of times ROB stalled by Loads: 34.3352
CPU 0 Percentage of Load stall cycles in Total stall cycles: 2.40383e+08
Issued all: 27149169
Issued LT all: 21444553
rob_not_full_when_issued_lt_all: 20373274
Issued LT one: 16195923
rob_not_full_when_issued_lt_one: 15240396
 Total stall cycles: 60895707
 Total load stall cycles: 146382989239651
CPU 0 NUM of IPS identified critical: 0
CPU 0 Num of Load IPs stalling ROB: 27624
Threshold modification factor: 0
Max PIST entries: 64
Min PIST entries: 0
Avg PIST entries: 31.94
Trouble in retire width: 0.869119
MaC = Marked as critical.
lt_50_percent_before_Mac: 0
gt_90_percent_before_Mac: 0
gt_75_percent_before_Mac: 0
gt_50_percent_before_Mac: 0
stall_proportion_bin_same_before_after: 0
stall_proportion_bin_lower_before_after: 0
stall_proportion_bin_upper_before_after: 0
average_stall_proportion_before: -nan
average_stall_proportion_after: -nan
Critical IP stalls, total frequency: 0
Non-critical IP stalls, total frequency: 2903545
Total Freq all stalling IPs: 2903545
stat_90_percent_critical_ip_stalls_freq: 2613192
stat_90_percent_non_critical_ip_stalls_freq: 290353
Critical_IP_ROB_Stalls_Bucket_0: 0
Non-critical_IP_ROB_Stalls_Bucket_0: 1427164
Critical_IP_ROB_Stalls_Bucket_1: 0
Non-critical_IP_ROB_Stalls_Bucket_1: 827922
Critical_IP_ROB_Stalls_Bucket_2: 0
Non-critical_IP_ROB_Stalls_Bucket_2: 385538
Critical_IP_ROB_Stalls_Bucket_3: 0
Non-critical_IP_ROB_Stalls_Bucket_3: 138742
Critical_IP_ROB_Stalls_Bucket_4: 0
Non-critical_IP_ROB_Stalls_Bucket_4: 51881
Critical_IP_ROB_Stalls_Bucket_5: 0
Non-critical_IP_ROB_Stalls_Bucket_5: 29945
Critical_IP_ROB_Stalls_Bucket_6: 0
Non-critical_IP_ROB_Stalls_Bucket_6: 42353
0 => IPs accounting for >50 percent of stalls, 1 => 55, 2 => 60, 3 => 65 and so on till 90.
percent50: 50.0203 num IPs:  198
percent55: 55.0405 num IPs: 278
percent60: 60.0391 num IPs: 388
percent65: 65.0195 num IPs: 526
percent70: 70.0138 num IPs: 718
percent75: 75.0157 num IPs: 987
percent80: 80.0044 num IPs: 1355
percent85: 85.0056 num IPs: 1914
percent90: 90.0002 num IPs: 2900
Critical_ROB_Stalls_Percent_0_Bucket_0: 528665
Non-critical_ROB_Stalls_Percent_0_Bucket_0: 898499
Critical_ROB_Stalls_Percent_0_Bucket_1: 486779
Non-critical_ROB_Stalls_Percent_0_Bucket_1: 341143
Critical_ROB_Stalls_Percent_0_Bucket_2: 264303
Non-critical_ROB_Stalls_Percent_0_Bucket_2: 121235
Critical_ROB_Stalls_Percent_0_Bucket_3: 94466
Non-critical_ROB_Stalls_Percent_0_Bucket_3: 44276
Critical_ROB_Stalls_Percent_0_Bucket_4: 30914
Non-critical_ROB_Stalls_Percent_0_Bucket_4: 20967
Critical_ROB_Stalls_Percent_0_Bucket_5: 20486
Non-critical_ROB_Stalls_Percent_0_Bucket_5: 9459
Critical_ROB_Stalls_Percent_0_Bucket_6: 26750
Non-critical_ROB_Stalls_Percent_0_Bucket_6: 15603
Critical_ROB_Stalls_Percent_1_Bucket_0: 604645
Non-critical_ROB_Stalls_Percent_1_Bucket_0: 822519
Critical_ROB_Stalls_Percent_1_Bucket_1: 528657
Non-critical_ROB_Stalls_Percent_1_Bucket_1: 299265
Critical_ROB_Stalls_Percent_1_Bucket_2: 278763
Non-critical_ROB_Stalls_Percent_1_Bucket_2: 106775
Critical_ROB_Stalls_Percent_1_Bucket_3: 100071
Non-critical_ROB_Stalls_Percent_1_Bucket_3: 38671
Critical_ROB_Stalls_Percent_1_Bucket_4: 33109
Non-critical_ROB_Stalls_Percent_1_Bucket_4: 18772
Critical_ROB_Stalls_Percent_1_Bucket_5: 21557
Non-critical_ROB_Stalls_Percent_1_Bucket_5: 8388
Critical_ROB_Stalls_Percent_1_Bucket_6: 31325
Non-critical_ROB_Stalls_Percent_1_Bucket_6: 11028
Critical_ROB_Stalls_Percent_2_Bucket_0: 675011
Non-critical_ROB_Stalls_Percent_2_Bucket_0: 752153
Critical_ROB_Stalls_Percent_2_Bucket_1: 572857
Non-critical_ROB_Stalls_Percent_2_Bucket_1: 255065
Critical_ROB_Stalls_Percent_2_Bucket_2: 293862
Non-critical_ROB_Stalls_Percent_2_Bucket_2: 91676
Critical_ROB_Stalls_Percent_2_Bucket_3: 105891
Non-critical_ROB_Stalls_Percent_2_Bucket_3: 32851
Critical_ROB_Stalls_Percent_2_Bucket_4: 38485
Non-critical_ROB_Stalls_Percent_2_Bucket_4: 13396
Critical_ROB_Stalls_Percent_2_Bucket_5: 23225
Non-critical_ROB_Stalls_Percent_2_Bucket_5: 6720
Critical_ROB_Stalls_Percent_2_Bucket_6: 33931
Non-critical_ROB_Stalls_Percent_2_Bucket_6: 8422
Critical_ROB_Stalls_Percent_3_Bucket_0: 741657
Non-critical_ROB_Stalls_Percent_3_Bucket_0: 685507
Critical_ROB_Stalls_Percent_3_Bucket_1: 620464
Non-critical_ROB_Stalls_Percent_3_Bucket_1: 207458
Critical_ROB_Stalls_Percent_3_Bucket_2: 313127
Non-critical_ROB_Stalls_Percent_3_Bucket_2: 72411
Critical_ROB_Stalls_Percent_3_Bucket_3: 112322
Non-critical_ROB_Stalls_Percent_3_Bucket_3: 26420
Critical_ROB_Stalls_Percent_3_Bucket_4: 41284
Non-critical_ROB_Stalls_Percent_3_Bucket_4: 10597
Critical_ROB_Stalls_Percent_3_Bucket_5: 24334
Non-critical_ROB_Stalls_Percent_3_Bucket_5: 5611
Critical_ROB_Stalls_Percent_3_Bucket_6: 34682
Non-critical_ROB_Stalls_Percent_3_Bucket_6: 7671
Critical_ROB_Stalls_Percent_4_Bucket_0: 836798
Non-critical_ROB_Stalls_Percent_4_Bucket_0: 590366
Critical_ROB_Stalls_Percent_4_Bucket_1: 649744
Non-critical_ROB_Stalls_Percent_4_Bucket_1: 178178
Critical_ROB_Stalls_Percent_4_Bucket_2: 325808
Non-critical_ROB_Stalls_Percent_4_Bucket_2: 59730
Critical_ROB_Stalls_Percent_4_Bucket_3: 116300
Non-critical_ROB_Stalls_Percent_4_Bucket_3: 22442
Critical_ROB_Stalls_Percent_4_Bucket_4: 43226
Non-critical_ROB_Stalls_Percent_4_Bucket_4: 8655
Critical_ROB_Stalls_Percent_4_Bucket_5: 25282
Non-critical_ROB_Stalls_Percent_4_Bucket_5: 4663
Critical_ROB_Stalls_Percent_4_Bucket_6: 35723
Non-critical_ROB_Stalls_Percent_4_Bucket_6: 6630
Critical_ROB_Stalls_Percent_5_Bucket_0: 921342
Non-critical_ROB_Stalls_Percent_5_Bucket_0: 505822
Critical_ROB_Stalls_Percent_5_Bucket_1: 687969
Non-critical_ROB_Stalls_Percent_5_Bucket_1: 139953
Critical_ROB_Stalls_Percent_5_Bucket_2: 339247
Non-critical_ROB_Stalls_Percent_5_Bucket_2: 46291
Critical_ROB_Stalls_Percent_5_Bucket_3: 121126
Non-critical_ROB_Stalls_Percent_5_Bucket_3: 17616
Critical_ROB_Stalls_Percent_5_Bucket_4: 45178
Non-critical_ROB_Stalls_Percent_5_Bucket_4: 6703
Critical_ROB_Stalls_Percent_5_Bucket_5: 26481
Non-critical_ROB_Stalls_Percent_5_Bucket_5: 3464
Critical_ROB_Stalls_Percent_5_Bucket_6: 36768
Non-critical_ROB_Stalls_Percent_5_Bucket_6: 5585
Critical_ROB_Stalls_Percent_6_Bucket_0: 1011664
Non-critical_ROB_Stalls_Percent_6_Bucket_0: 415500
Critical_ROB_Stalls_Percent_6_Bucket_1: 725726
Non-critical_ROB_Stalls_Percent_6_Bucket_1: 102196
Critical_ROB_Stalls_Percent_6_Bucket_2: 348551
Non-critical_ROB_Stalls_Percent_6_Bucket_2: 36987
Critical_ROB_Stalls_Percent_6_Bucket_3: 124787
Non-critical_ROB_Stalls_Percent_6_Bucket_3: 13955
Critical_ROB_Stalls_Percent_6_Bucket_4: 46783
Non-critical_ROB_Stalls_Percent_6_Bucket_4: 5098
Critical_ROB_Stalls_Percent_6_Bucket_5: 27466
Non-critical_ROB_Stalls_Percent_6_Bucket_5: 2479
Critical_ROB_Stalls_Percent_6_Bucket_6: 37986
Non-critical_ROB_Stalls_Percent_6_Bucket_6: 4367
Critical_ROB_Stalls_Percent_7_Bucket_0: 1106973
Non-critical_ROB_Stalls_Percent_7_Bucket_0: 320191
Critical_ROB_Stalls_Percent_7_Bucket_1: 756286
Non-critical_ROB_Stalls_Percent_7_Bucket_1: 71636
Critical_ROB_Stalls_Percent_7_Bucket_2: 360105
Non-critical_ROB_Stalls_Percent_7_Bucket_2: 25433
Critical_ROB_Stalls_Percent_7_Bucket_3: 128481
Non-critical_ROB_Stalls_Percent_7_Bucket_3: 10261
Critical_ROB_Stalls_Percent_7_Bucket_4: 48200
Non-critical_ROB_Stalls_Percent_7_Bucket_4: 3681
Critical_ROB_Stalls_Percent_7_Bucket_5: 28252
Non-critical_ROB_Stalls_Percent_7_Bucket_5: 1693
Critical_ROB_Stalls_Percent_7_Bucket_6: 39881
Non-critical_ROB_Stalls_Percent_7_Bucket_6: 2472
Critical_ROB_Stalls_Percent_8_Bucket_0: 1202132
Non-critical_ROB_Stalls_Percent_8_Bucket_0: 225032
Critical_ROB_Stalls_Percent_8_Bucket_1: 785858
Non-critical_ROB_Stalls_Percent_8_Bucket_1: 42064
Critical_ROB_Stalls_Percent_8_Bucket_2: 371729
Non-critical_ROB_Stalls_Percent_8_Bucket_2: 13809
Critical_ROB_Stalls_Percent_8_Bucket_3: 133454
Non-critical_ROB_Stalls_Percent_8_Bucket_3: 5288
Critical_ROB_Stalls_Percent_8_Bucket_4: 49800
Non-critical_ROB_Stalls_Percent_8_Bucket_4: 2081
Critical_ROB_Stalls_Percent_8_Bucket_5: 29072
Non-critical_ROB_Stalls_Percent_8_Bucket_5: 873
Critical_ROB_Stalls_Percent_8_Bucket_6: 41147
Non-critical_ROB_Stalls_Percent_8_Bucket_6: 1206
Average ROB occupancy Load Stall Begin: 59.7939
Average ROB occupancy Load Stall End: 69.4377
Min ROB occupancy Load Stall Begin: 1
Max ROB occupancy Load Stall Begin: 352
Min ROB occupancy Load Stall End: 1
Max ROB occupancy Load Stall End: 352
Average ROB occupancy Critical Load Stall Begin: -nan
Average ROB occupancy Critical Load Stall End: -nan
Min ROB occupancy Critical Load Stall Begin: 400
Max ROB occupancy Critical Load Stall Begin: 0
Min ROB occupancy Critical Load Stall End: 400
Max ROB occupancy Critical Load Stall End: 0
 ROB Load Stall Begin Bucket Count 0: 1681456
 ROB Load Stall End Bucket Count 0: 1427164
 ROB Critical Load Stall Begin Bucket Count 0: 0
 ROB Critical Load Stall End Bucket Count 0: 0
 ROB Load Stall Begin Bucket Count 1: 699646
 ROB Load Stall End Bucket Count 1: 827922
 ROB Critical Load Stall Begin Bucket Count 1: 0
 ROB Critical Load Stall End Bucket Count 1: 0
 ROB Load Stall Begin Bucket Count 2: 313516
 ROB Load Stall End Bucket Count 2: 385538
 ROB Critical Load Stall Begin Bucket Count 2: 0
 ROB Critical Load Stall End Bucket Count 2: 0
 ROB Load Stall Begin Bucket Count 3: 105600
 ROB Load Stall End Bucket Count 3: 138742
 ROB Critical Load Stall Begin Bucket Count 3: 0
 ROB Critical Load Stall End Bucket Count 3: 0
 ROB Load Stall Begin Bucket Count 4: 40492
 ROB Load Stall End Bucket Count 4: 51881
 ROB Critical Load Stall Begin Bucket Count 4: 0
 ROB Critical Load Stall End Bucket Count 4: 0
 ROB Load Stall Begin Bucket Count 5: 26490
 ROB Load Stall End Bucket Count 5: 29945
 ROB Critical Load Stall Begin Bucket Count 5: 0
 ROB Critical Load Stall End Bucket Count 5: 0
 ROB Load Stall Begin Bucket Count 6: 36345
 ROB Load Stall End Bucket Count 6: 42353
 ROB Critical Load Stall Begin Bucket Count 6: 0
 ROB Critical Load Stall End Bucket Count 6: 0
PIST Tag Read Accesses: 2590492
PIST Read Accesses: 1295246
PIST Tag Write Accesses: 2590492
PIST Write Accesses: 1295246
Criticality detector called times: 2699832
Max global_stall_cycles_count: 3825577
Threshold Modified: 0 times, factor: 0
Sturdy critical IP cache stats: 
 Unused entries: 0
CIC Tag Read Accesses: 0
CIC Read Accesses: 0
CIC Tag Write Accesses: 0
CIC Write Accesses: 0
Wobbly critical IP cache stats: 
 Unused entries: 53
CIC Tag Read Accesses: 155729990
CIC Read Accesses: 0
CIC Tag Write Accesses: 24703
CIC Write Accesses: 0
ITLB TOTAL     ACCESS:    9254077  HIT:    9134192  MISS:     119885  HIT %:    98.7045  MISS %:    1.29548   MPKI: 2.3977
ITLB LOAD TRANSLATION ACCESS:    8276080  HIT:    8217528  MISS:      58552  HIT %:    99.2925  MISS %:   0.707485   MPKI: 1.17104
ITLB TRANSLATION FROM L1D PREFETCHER ACCESS:     977997  HIT:     916664  MISS:      61333  HIT %:    93.7287  MISS %:    6.27129   MPKI: 1.22666
ITLB PREFETCH  REQUESTED:          0  ISSUED:          0  USEFUL:      48840  USELESS:      12491
ITLB USEFUL LOAD PREFETCHES:      48840 PREFETCH ISSUED TO LOWER LEVEL:          0  ACCURACY: inf
ITLB TIMELY PREFETCHES:      48840 LATE PREFETCHES: 348 DROPPED PREFETCHES: 330
ITLB PREFETCHES SAME FILL-ORIGIN LEVEL: 0 DIFFERENT FILL-ORIGIN LEVEL: 0
ITLB AVERAGE MISS LATENCY: 145513 cycles
ITLB RQ	ACCESS:   12565341	FORWARD:          0	MERGED:    3291211	TO_CACHE:    9274130

DTLB TOTAL     ACCESS:   10405882  HIT:   10204566  MISS:     201316  HIT %:    98.0654  MISS %:    1.93464   MPKI: 4.02632
DTLB LOAD TRANSLATION ACCESS:   10405882  HIT:   10204566  MISS:     201316  HIT %:    98.0654  MISS %:    1.93464   MPKI: 4.02632
DTLB PREFETCH  REQUESTED:          0  ISSUED:          0  USEFUL:          0  USELESS:          0
DTLB USEFUL LOAD PREFETCHES:          0 PREFETCH ISSUED TO LOWER LEVEL:          0  ACCURACY: -nan
DTLB TIMELY PREFETCHES:          0 LATE PREFETCHES: 0 DROPPED PREFETCHES: 0
DTLB PREFETCHES SAME FILL-ORIGIN LEVEL: 0 DIFFERENT FILL-ORIGIN LEVEL: 0
DTLB AVERAGE MISS LATENCY: 12.9037 cycles
DTLB RQ	ACCESS:   14347280	FORWARD:          0	MERGED:    3910459	TO_CACHE:   10436821

STLB TOTAL     ACCESS:     374327  HIT:     362412  MISS:      11915  HIT %:     96.817  MISS %:    3.18305   MPKI: 0.2383
STLB LOAD TRANSLATION ACCESS:     259522  HIT:     248408  MISS:      11114  HIT %:    95.7175  MISS %:    4.28249   MPKI: 0.22228
STLB TRANSLATION FROM L1D PREFETCHER ACCESS:     114805  HIT:     114004  MISS:        801  HIT %:    99.3023  MISS %:   0.697705   MPKI: 0.01602
STLB PREFETCH  REQUESTED:          0  ISSUED:          0  USEFUL:        550  USELESS:        251
STLB USEFUL LOAD PREFETCHES:        550 PREFETCH ISSUED TO LOWER LEVEL:          0  ACCURACY: inf
STLB TIMELY PREFETCHES:        550 LATE PREFETCHES: 0 DROPPED PREFETCHES: 332
STLB PREFETCHES SAME FILL-ORIGIN LEVEL: 0 DIFFERENT FILL-ORIGIN LEVEL: 0
STLB AVERAGE MISS LATENCY: 80.0461 cycles
STLB RQ	ACCESS:     392455	FORWARD:          0	MERGED:      17795	TO_CACHE:     374660

STLB Hit, L1D data hit: 0
STLB Hit, L2C data hit: 0
STLB Hit, LLC data hit: 0
STLB Hit, LLC data miss: 0
STLB STLB hints to L2: 0
L1D TOTAL     ACCESS:   13913809  HIT:   13506708  MISS:     407101  HIT %:    97.0741  MISS %:    2.92588   MPKI: 8.14202
L1D LOAD      ACCESS:    7054416  HIT:    6875986  MISS:     178430  HIT %:    97.4707  MISS %:    2.52934   MPKI: 3.5686
L1D RFO       ACCESS:    6791856  HIT:    6595453  MISS:     196403  HIT %:    97.1083  MISS %:    2.89174   MPKI: 3.92806
L1D PREFETCH  ACCESS:      67537  HIT:      35269  MISS:      32268  HIT %:    52.2217  MISS %:    47.7783   MPKI: 0.64536
L1D PREFETCH  REQUESTED:     141847  ISSUED:     141847  USEFUL:      13976  USELESS:      18278
L1D USEFUL LOAD PREFETCHES:      13976 PREFETCH ISSUED TO LOWER LEVEL:      34042  ACCURACY: 41.0552
L1D TIMELY PREFETCHES:      13976 LATE PREFETCHES: 1725 DROPPED PREFETCHES: 0
L1D PREFETCHES SAME FILL-ORIGIN LEVEL: 34042 DIFFERENT FILL-ORIGIN LEVEL: 0
L1D AVERAGE MISS LATENCY: 240606 cycles
L1D RQ	ACCESS:   10968677	FORWARD:          0	MERGED:    3728476	TO_CACHE:    7087337
L1D WQ	ACCESS:    7412318	FORWARD:     152867	MERGED:     152375	TO_CACHE:    7259943
L1D PQ	ACCESS:      70925	FORWARD:          0	MERGED:          0	TO_CACHE:      70922

L1D UNIQUE REGIONS ACCESSED: 0
L1D REGIONS CONFLICTS: 0
L1D Cross Page Prefetch Requests: 0
L1D Same Page Prefetch Requests: 70925
L1D ROI Sum of L1D PQ occupancy: 967159
L1D PREFETCHES PUSHED FROM L2C: 0
L1I TOTAL     ACCESS:   12429406  HIT:   11353677  MISS:    1075729  HIT %:    91.3453  MISS %:    8.65471   MPKI: 21.5146
L1I LOAD      ACCESS:    9748882  HIT:    9479693  MISS:     269189  HIT %:    97.2388  MISS %:    2.76123   MPKI: 5.38378
L1I PREFETCH  ACCESS:    2680524  HIT:    1873984  MISS:     806540  HIT %:    69.9111  MISS %:    30.0889   MPKI: 16.1308
L1I PREFETCH  REQUESTED:    2934229  ISSUED:    2931076  USEFUL:     513573  USELESS:     292911
L1I USEFUL LOAD PREFETCHES:     513573 PREFETCH ISSUED TO LOWER LEVEL:     835556  ACCURACY: 61.4648
L1I TIMELY PREFETCHES:     513573 LATE PREFETCHES: 29016 DROPPED PREFETCHES: 700
L1I PREFETCHES SAME FILL-ORIGIN LEVEL: 835556 DIFFERENT FILL-ORIGIN LEVEL: 0
L1I AVERAGE MISS LATENCY: 1.29179e+06 cycles
L1I RQ	ACCESS:   14561356	FORWARD:          0	MERGED:    4775537	TO_CACHE:    9785819
L1I PQ	ACCESS:    2931076	FORWARD:          0	MERGED:     151554	TO_CACHE:    2779522

BTB TOTAL     ACCESS:    6897112  HIT:    6294074  MISS:     603038  HIT %:    91.2567  MISS %:    8.74334   MPKI: 12.0608
BTB BRANCH_DIRECT_JUMP	ACCESS:     484667  HIT:     467652  MISS:      17015
BTB BRANCH_INDIRECT	ACCESS:      85086  HIT:      43882  MISS:      41204
BTB BRANCH_CONDITIONAL	ACCESS:    3984632  HIT:    3933521  MISS:      51111
BTB BRANCH_DIRECT_CALL	ACCESS:    1028917  HIT:     994054  MISS:      34863
BTB BRANCH_INDIRECT_CALL	ACCESS:     141825  HIT:     105579  MISS:      36246
BTB BRANCH_RETURN	ACCESS:    1171985  HIT:     749386  MISS:     422599
BTB BRANCH_OTHER ACCESS:          0  HIT:          0  MISS:          0

L2C TOTAL     ACCESS:    1894316  HIT:    1500577  MISS:     393739  HIT %:    79.2147  MISS %:    20.7853   MPKI: 7.87478
L2C LOAD      ACCESS:     416872  HIT:     296997  MISS:     119875  HIT %:    71.2442  MISS %:    28.7558   MPKI: 2.3975
L2C DATA LOAD MPKI: 1.9131
L2C INSTRUCTION LOAD MPKI: 0.4844
L2C RFO       ACCESS:     196351  HIT:      32406  MISS:     163945  HIT %:    16.5041  MISS %:    83.4959   MPKI: 3.2789
L2C PREFETCH  ACCESS:    1026506  HIT:     933711  MISS:      92795  HIT %:    90.9601  MISS %:    9.03989   MPKI: 1.8559
L2C DATA PREFETCH MPKI: 0.7496
L2C INSTRUCTION PREFETCH MPKI: 1.1063
L2C WRITEBACK ACCESS:     241416  HIT:     228415  MISS:      13001  HIT %:    94.6147  MISS %:    5.38531   MPKI: 0.26002
L2C LOAD TRANSLATION ACCESS:      11949  HIT:       8163  MISS:       3786  HIT %:    68.3153  MISS %:    31.6847   MPKI: 0.07572
L2C TRANSLATION FROM L1D PREFETCHER ACCESS:       1222  HIT:        885  MISS:        337  HIT %:    72.4223  MISS %:    27.5777   MPKI: 0.00674
L2C PREFETCH  REQUESTED:     336151  ISSUED:     336151  USEFUL:       9201  USELESS:      82085
L2C USEFUL LOAD PREFETCHES:       9201 PREFETCH ISSUED TO LOWER LEVEL:      92872  ACCURACY: 9.90718
L2C TIMELY PREFETCHES:       9201 LATE PREFETCHES: 77 DROPPED PREFETCHES: 0
L2C PREFETCHES SAME FILL-ORIGIN LEVEL: 16619 DIFFERENT FILL-ORIGIN LEVEL: 0
L2C AVERAGE MISS LATENCY: 127.931 cycles
L2C RQ	ACCESS:     626403	FORWARD:          0	MERGED:          0	TO_CACHE:     626394
L2C WQ	ACCESS:     241416	FORWARD:          9	MERGED:          0	TO_CACHE:     241416
L2C PQ	ACCESS:    1205749	FORWARD:          0	MERGED:     177996	TO_CACHE:    1027753

L2C Instructions Evicting Data 49545
L2C Translations Evicting Data 2835
L2C Data Evicting Data 249705
L2C Instructions Evicting Instructions 28843
L2C Translations Evicting Instructions 1210
L2C Data Evicting Instructions 44637
L2C Instructions Evicting Translations 1147
L2C Translations Evicting Translations 78
L2C Data Evicting Translations 2738
L2C Dense regions hint from L2: 0
PSCL5 TOTAL     ACCESS:      12247  HIT:      12247  MISS:          0  HIT %:        100  MISS %:          0   MPKI: 0
PSCL5 LOAD TRANSLATION ACCESS:      11114  HIT:      11114  MISS:          0  HIT %:        100  MISS %:          0   MPKI: 0
PSCL5 TRANSLATION FROM L1D PREFETCHER ACCESS:       1133  HIT:       1133  MISS:          0  HIT %:        100  MISS %:          0   MPKI: 0
PSCL5 PREFETCH  REQUESTED:          0  ISSUED:          0  USEFUL:          0  USELESS:          0
PSCL5 USEFUL LOAD PREFETCHES:          0 PREFETCH ISSUED TO LOWER LEVEL:          0  ACCURACY: -nan
PSCL5 TIMELY PREFETCHES:          0 LATE PREFETCHES: 0 DROPPED PREFETCHES: 0
PSCL5 PREFETCHES SAME FILL-ORIGIN LEVEL: 0 DIFFERENT FILL-ORIGIN LEVEL: 0

PSCL4 TOTAL     ACCESS:      12247  HIT:      12247  MISS:          0  HIT %:        100  MISS %:          0   MPKI: 0
PSCL4 LOAD TRANSLATION ACCESS:      11114  HIT:      11114  MISS:          0  HIT %:        100  MISS %:          0   MPKI: 0
PSCL4 TRANSLATION FROM L1D PREFETCHER ACCESS:       1133  HIT:       1133  MISS:          0  HIT %:        100  MISS %:          0   MPKI: 0
PSCL4 PREFETCH  REQUESTED:          0  ISSUED:          0  USEFUL:          0  USELESS:          0
PSCL4 USEFUL LOAD PREFETCHES:          0 PREFETCH ISSUED TO LOWER LEVEL:          0  ACCURACY: -nan
PSCL4 TIMELY PREFETCHES:          0 LATE PREFETCHES: 0 DROPPED PREFETCHES: 0
PSCL4 PREFETCHES SAME FILL-ORIGIN LEVEL: 0 DIFFERENT FILL-ORIGIN LEVEL: 0

PSCL3 TOTAL     ACCESS:      12227  HIT:      12217  MISS:         10  HIT %:    99.9182  MISS %:  0.0817862   MPKI: 0.0002
PSCL3 LOAD TRANSLATION ACCESS:      11099  HIT:      11089  MISS:         10  HIT %:    99.9099  MISS %:  0.0900982   MPKI: 0.0002
PSCL3 TRANSLATION FROM L1D PREFETCHER ACCESS:       1128  HIT:       1128  MISS:          0  HIT %:        100  MISS %:          0   MPKI: 0
PSCL3 PREFETCH  REQUESTED:          0  ISSUED:          0  USEFUL:          0  USELESS:          0
PSCL3 USEFUL LOAD PREFETCHES:          0 PREFETCH ISSUED TO LOWER LEVEL:          0  ACCURACY: -nan
PSCL3 TIMELY PREFETCHES:          0 LATE PREFETCHES: 0 DROPPED PREFETCHES: 0
PSCL3 PREFETCHES SAME FILL-ORIGIN LEVEL: 0 DIFFERENT FILL-ORIGIN LEVEL: 0

PSCL2 TOTAL     ACCESS:      12211  HIT:      11332  MISS:        879  HIT %:    92.8016  MISS %:    7.19843   MPKI: 0.01758
PSCL2 LOAD TRANSLATION ACCESS:      11166  HIT:      10287  MISS:        879  HIT %:    92.1279  MISS %:    7.87211   MPKI: 0.01758
PSCL2 TRANSLATION FROM L1D PREFETCHER ACCESS:       1045  HIT:       1045  MISS:          0  HIT %:        100  MISS %:          0   MPKI: 0
PSCL2 PREFETCH  REQUESTED:          0  ISSUED:          0  USEFUL:          0  USELESS:          0
PSCL2 USEFUL LOAD PREFETCHES:          0 PREFETCH ISSUED TO LOWER LEVEL:          0  ACCURACY: -nan
PSCL2 TIMELY PREFETCHES:          0 LATE PREFETCHES: 0 DROPPED PREFETCHES: 0
PSCL2 PREFETCHES SAME FILL-ORIGIN LEVEL: 0 DIFFERENT FILL-ORIGIN LEVEL: 0

LLC TOTAL     ACCESS:     576275  HIT:     307628  MISS:     268647  HIT %:    53.3822  MISS %:    46.6178   MPKI: 5.37294
LLC LOAD      ACCESS:     119799  HIT:      53091  MISS:      66708  HIT %:    44.3167  MISS %:    55.6833   MPKI: 1.33416
LLC RFO       ACCESS:     163944  HIT:       8227  MISS:     155717  HIT %:    5.01818  MISS %:    94.9818   MPKI: 3.11434
LLC PREFETCH  ACCESS:      92872  HIT:      53119  MISS:      39753  HIT %:    57.1959  MISS %:    42.8041   MPKI: 0.79506
LLC WRITEBACK ACCESS:     195537  HIT:     191152  MISS:       4385  HIT %:    97.7575  MISS %:    2.24254   MPKI: 0.0877
LLC LOAD TRANSLATION ACCESS:       3786  HIT:       1862  MISS:       1924  HIT %:    49.1812  MISS %:    50.8188   MPKI: 0.03848
LLC TRANSLATION FROM L1D PREFETCHER ACCESS:        337  HIT:        177  MISS:        160  HIT %:    52.5223  MISS %:    47.4777   MPKI: 0.0032
LLC PREFETCH  REQUESTED:          0  ISSUED:          0  USEFUL:       4105  USELESS:      30522
LLC USEFUL LOAD PREFETCHES:       4105 PREFETCH ISSUED TO LOWER LEVEL:      39753  ACCURACY: 10.3263
LLC TIMELY PREFETCHES:       4105 LATE PREFETCHES: 0 DROPPED PREFETCHES: 0
LLC PREFETCHES SAME FILL-ORIGIN LEVEL: 0 DIFFERENT FILL-ORIGIN LEVEL: 0
LLC AVERAGE MISS LATENCY: 144.907 cycles
LLC RQ	ACCESS:     287866	FORWARD:          0	MERGED:          0	TO_CACHE:     287866
LLC WQ	ACCESS:     195537	FORWARD:          0	MERGED:          0	TO_CACHE:     195537
LLC PQ	ACCESS:      92872	FORWARD:          0	MERGED:          0	TO_CACHE:      92872

LLC Dense regions hint to LLC: 0

RAW hits: 1823522
Loads Generated: 12792198
Loads sent to L1D: 10968677
Stores Generated: 7412307
Stores sent to L1D: 7412318
Major fault: 0 Minor fault: 6178
Allocated PAGES: 6178
I-Shadow cache 408 bytes
Touched + WorthPF tables 6144 bytes 
MMA filter 174 bytes 
FNL filter 272 bytes 
TOTAL PREFETCHER STORAGE SIZE: 25174 bytes
CPU 0 L1I next line prefetcher final stats

stream: 
stream:times selected: 123321
stream:pref_filled: 16573
stream:pref_useful: 3273
stream:pref_late: 397
stream:misses: 2475
stream:misses_by_poll: 0

CS: 
CS:times selected: 21309
CS:pref_filled: 12414
CS:pref_useful: 10206
CS:pref_late: 1072
CS:misses: 1782
CS:misses_by_poll: 160

CPLX: 
CPLX:times selected: 101659
CPLX:pref_filled: 3107
CPLX:pref_useful: 450
CPLX:pref_late: 37
CPLX:misses: 13048
CPLX:misses_by_poll: 6

NL_L1: 
NL:times selected: 763
NL:pref_filled: 147
NL:pref_useful: 26
NL:pref_late: 5
NL:misses: 155
NL:misses_by_poll: 0

total selections: 247052
total_filled: 32268
total_useful: 13976
total_late: 1725
total_polluted: 166
total_misses_after_warmup: 17929
conflicts: 1311
Degree Incremented Times: 2863
Degree Decremented Times: 3410

L1 IP Table Write Accesses: 277231
L1 IP Table Read Accesses: 275920
L1 RST Write Accesses: 123323
L1 RST Read Accesses: 246638
L1 CSPT Write Accesses: 123323
L1 CSPT Read Accesses: 228333
L1 RR Filter Tag Write Accesses: 70925
L1 RR Filter Tag Read Accesses: 6016820
L1 IP Table Tag Write Accesses: 280180
L1 IP Table Tag Read Accesses: 280180
L1 RST Tag Write Accesses: 56
L1 RST Tag Read Accesses: 1032613
L1 RR Filter Write Accesses: 0
L1 RR Filter Read Accesses: 237561
test: 29115
L2 IP Table Read Accesses: 389892
L2 IP Table Write Accesses: 693978
L2 IP Table Tag Read Accesses: 355729
L2 IP Table Tag Write Accesses: 355729

DRAM Statistics
 CHANNEL 0
 RQ ROW_BUFFER_HIT:      88795  ROW_BUFFER_MISS:     175467
 DBUS_CONGESTED:        271
 WQ ROW_BUFFER_HIT:      35643  ROW_BUFFER_MISS:     146746  FULL:          0

 AVG_CONGESTED_CYCLE: 3
 All warmup complete: 2
Channel 0 Bank busy for read cycles: 0
Channel 0 Bank busy for write cycles: 0
Channel 0
Rank 0
0banks busy for read cycles: 45162916
0banks busy for write cycles: 45186
1banks busy for read cycles: 11036520
1banks busy for write cycles: 5293193
2banks busy for read cycles: 3681100
2banks busy for write cycles: 2521780
3banks busy for read cycles: 982032
3banks busy for write cycles: 1123855
4banks busy for read cycles: 445748
4banks busy for write cycles: 538633
5banks busy for read cycles: 275168
5banks busy for write cycles: 428094
6banks busy for read cycles: 298674
6banks busy for write cycles: 399643
7banks busy for read cycles: 221183
7banks busy for write cycles: 501279
8banks busy for read cycles: 375056
8banks busy for write cycles: 1113855

CPU 0 Branch Prediction Accuracy: 97.8666% MPKI: 3.9013 Average ROB Occupancy at Mispredict: 49.143
Branch types
NOT_BRANCH: 40856330 81.7127%
BRANCH_DIRECT_JUMP: 484667 0.969334%
BRANCH_INDIRECT: 85086 0.170172%
BRANCH_CONDITIONAL: 6230887 12.4618%
BRANCH_DIRECT_CALL: 1028917 2.05783%
BRANCH_INDIRECT_CALL: 141825 0.28365%
BRANCH_RETURN: 1171985 2.34397%
BRANCH_OTHER: 0 0%

DRAM PAGES: 1048576
Allocated PAGES: 6178
