
*** ChampSim Multicore Out-of-Order Simulator ***

Warmup Instructions: 50000000
Simulation Instructions: 50000000
Number of CPUs: 1
LLC sets: 2048
LLC ways: 16
Off-chip DRAM Size: 4096 MB Channels: 1 Width: 64-bit Data Rate: 6400 MT/s
CPU 0 runs ../IPC-traces//client_002.champsimtrace.xz
.xz
NUM_OF_IPS_IN_CRITICAL_IP_TRAINING: 64
NUM_OF_CRITICAL_IP_TRAINING_TABLE_WAYS: 2
NUM_OF_CRITICAL_IP_TRAINING_TABLE_SETS: 32
WOBBLY_CRITICAL_IP_CACHE_SETS: 32
WOBBLY_CRITICAL_IP_CACHE_WAYS: 4
BTB has LRU replacement policy
ITLB has LRU replacement policy
DTLB has LRU replacement policy
STLB has LRU replacement policy
CPU 0 L1I next line prefetcher
L1I has LRU replacement policy
IP Table Entries: 256
L1D has LRU replacement policy
Initialize SRRIP state for L2C
Initialize DRRIP state for LLC
Heartbeat CPU 0 instructions: 10000000 cycles: 2817137 heartbeat IPC: 3.5497 cumulative IPC: 3.5497 (Simulation time: 0 hr 2 min 44 sec) 
Heartbeat CPU 0 instructions: 20000001 cycles: 5652684 heartbeat IPC: 3.52666 cumulative IPC: 3.53814 (Simulation time: 0 hr 5 min 7 sec) 
Heartbeat CPU 0 instructions: 30000002 cycles: 8483980 heartbeat IPC: 3.53195 cumulative IPC: 3.53608 (Simulation time: 0 hr 7 min 23 sec) 
Heartbeat CPU 0 instructions: 40000000 cycles: 11320076 heartbeat IPC: 3.52597 cumulative IPC: 3.53355 (Simulation time: 0 hr 9 min 22 sec) 
Heartbeat CPU 0 instructions: 50000002 cycles: 14142387 heartbeat IPC: 3.5432 cumulative IPC: 3.53547 (Simulation time: 0 hr 11 min 15 sec) 

Warmup complete CPU 0 instructions: 50000002 cycles: 14142387 (Simulation time: 0 hr 11 min 15 sec) 

Heartbeat CPU 0 instructions: 60000001 cycles: 26967395 heartbeat IPC: 0.779727 cumulative IPC: 0.779727 (Simulation time: 0 hr 13 min 34 sec) 
Heartbeat CPU 0 instructions: 70000003 cycles: 39773655 heartbeat IPC: 0.780868 cumulative IPC: 0.780297 (Simulation time: 0 hr 15 min 41 sec) 
Heartbeat CPU 0 instructions: 80000000 cycles: 52405296 heartbeat IPC: 0.791663 cumulative IPC: 0.784049 (Simulation time: 0 hr 17 min 46 sec) 
Heartbeat CPU 0 instructions: 90000001 cycles: 65651249 heartbeat IPC: 0.754948 cumulative IPC: 0.776565 (Simulation time: 0 hr 19 min 55 sec) 
Heartbeat CPU 0 instructions: 100000003 cycles: 78306210 heartbeat IPC: 0.790204 cumulative IPC: 0.779255 (Simulation time: 0 hr 22 min 2 sec) 
Finished CPU 0 instructions: 50000001 cycles: 64163823 cumulative IPC: 0.779255 (Simulation time: 0 hr 22 min 2 sec) 

ChampSim completed all CPUs

Region of Interest Statistics

CPU 0 cumulative IPC: 0.779255 instructions: 50000001 cycles: 64163823

CPU 0 Average Load ROB stall cycles: 1.76623e+07
CPU 0 Fraction of times ROB stalled by Loads: 38.2084
CPU 0 Percentage of Load stall cycles in Total stall cycles: 2.73014e+08
Issued all: 26973039
Issued LT all: 21310638
rob_not_full_when_issued_lt_all: 20970497
Issued LT one: 15963391
rob_not_full_when_issued_lt_one: 15676570
 Total stall cycles: 51274448
 Total load stall cycles: 139986420357224
CPU 0 NUM of IPS identified critical: 0
CPU 0 Num of Load IPs stalling ROB: 19155
Threshold modification factor: 0
Max PIST entries: 64
Min PIST entries: 0
Avg PIST entries: 32
Trouble in retire width: 0.874753
MaC = Marked as critical.
lt_50_percent_before_Mac: 0
gt_90_percent_before_Mac: 0
gt_75_percent_before_Mac: 0
gt_50_percent_before_Mac: 0
stall_proportion_bin_same_before_after: 0
stall_proportion_bin_lower_before_after: 0
stall_proportion_bin_upper_before_after: 0
average_stall_proportion_before: -nan
average_stall_proportion_after: -nan
Critical IP stalls, total frequency: 0
Non-critical IP stalls, total frequency: 3028293
Total Freq all stalling IPs: 3028293
stat_90_percent_critical_ip_stalls_freq: 2725511
stat_90_percent_non_critical_ip_stalls_freq: 302782
Critical_IP_ROB_Stalls_Bucket_0: 0
Non-critical_IP_ROB_Stalls_Bucket_0: 1662967
Critical_IP_ROB_Stalls_Bucket_1: 0
Non-critical_IP_ROB_Stalls_Bucket_1: 927831
Critical_IP_ROB_Stalls_Bucket_2: 0
Non-critical_IP_ROB_Stalls_Bucket_2: 311475
Critical_IP_ROB_Stalls_Bucket_3: 0
Non-critical_IP_ROB_Stalls_Bucket_3: 78992
Critical_IP_ROB_Stalls_Bucket_4: 0
Non-critical_IP_ROB_Stalls_Bucket_4: 20663
Critical_IP_ROB_Stalls_Bucket_5: 0
Non-critical_IP_ROB_Stalls_Bucket_5: 8002
Critical_IP_ROB_Stalls_Bucket_6: 0
Non-critical_IP_ROB_Stalls_Bucket_6: 18363
0 => IPs accounting for >50 percent of stalls, 1 => 55, 2 => 60, 3 => 65 and so on till 90.
percent50: 50.0317 num IPs:  146
percent55: 55.0284 num IPs: 192
percent60: 60.0105 num IPs: 254
percent65: 65.0115 num IPs: 339
percent70: 70.0257 num IPs: 457
percent75: 75.0295 num IPs: 610
percent80: 80.0109 num IPs: 791
percent85: 85.0058 num IPs: 1051
percent90: 90.0015 num IPs: 1602
Critical_ROB_Stalls_Percent_0_Bucket_0: 769460
Non-critical_ROB_Stalls_Percent_0_Bucket_0: 893507
Critical_ROB_Stalls_Percent_0_Bucket_1: 494927
Non-critical_ROB_Stalls_Percent_0_Bucket_1: 432904
Critical_ROB_Stalls_Percent_0_Bucket_2: 178302
Non-critical_ROB_Stalls_Percent_0_Bucket_2: 133173
Critical_ROB_Stalls_Percent_0_Bucket_3: 43023
Non-critical_ROB_Stalls_Percent_0_Bucket_3: 35969
Critical_ROB_Stalls_Percent_0_Bucket_4: 12484
Non-critical_ROB_Stalls_Percent_0_Bucket_4: 8179
Critical_ROB_Stalls_Percent_0_Bucket_5: 4311
Non-critical_ROB_Stalls_Percent_0_Bucket_5: 3691
Critical_ROB_Stalls_Percent_0_Bucket_6: 12600
Non-critical_ROB_Stalls_Percent_0_Bucket_6: 5763
Critical_ROB_Stalls_Percent_1_Bucket_0: 847349
Non-critical_ROB_Stalls_Percent_1_Bucket_0: 815618
Critical_ROB_Stalls_Percent_1_Bucket_1: 543017
Non-critical_ROB_Stalls_Percent_1_Bucket_1: 384814
Critical_ROB_Stalls_Percent_1_Bucket_2: 199918
Non-critical_ROB_Stalls_Percent_1_Bucket_2: 111557
Critical_ROB_Stalls_Percent_1_Bucket_3: 45850
Non-critical_ROB_Stalls_Percent_1_Bucket_3: 33142
Critical_ROB_Stalls_Percent_1_Bucket_4: 13109
Non-critical_ROB_Stalls_Percent_1_Bucket_4: 7554
Critical_ROB_Stalls_Percent_1_Bucket_5: 4544
Non-critical_ROB_Stalls_Percent_1_Bucket_5: 3458
Critical_ROB_Stalls_Percent_1_Bucket_6: 12634
Non-critical_ROB_Stalls_Percent_1_Bucket_6: 5729
Critical_ROB_Stalls_Percent_2_Bucket_0: 920535
Non-critical_ROB_Stalls_Percent_2_Bucket_0: 742432
Critical_ROB_Stalls_Percent_2_Bucket_1: 591106
Non-critical_ROB_Stalls_Percent_2_Bucket_1: 336725
Critical_ROB_Stalls_Percent_2_Bucket_2: 219292
Non-critical_ROB_Stalls_Percent_2_Bucket_2: 92183
Critical_ROB_Stalls_Percent_2_Bucket_3: 53658
Non-critical_ROB_Stalls_Percent_2_Bucket_3: 25334
Critical_ROB_Stalls_Percent_2_Bucket_4: 14621
Non-critical_ROB_Stalls_Percent_2_Bucket_4: 6042
Critical_ROB_Stalls_Percent_2_Bucket_5: 5119
Non-critical_ROB_Stalls_Percent_2_Bucket_5: 2883
Critical_ROB_Stalls_Percent_2_Bucket_6: 12963
Non-critical_ROB_Stalls_Percent_2_Bucket_6: 5400
Critical_ROB_Stalls_Percent_3_Bucket_0: 988483
Non-critical_ROB_Stalls_Percent_3_Bucket_0: 674484
Critical_ROB_Stalls_Percent_3_Bucket_1: 653491
Non-critical_ROB_Stalls_Percent_3_Bucket_1: 274340
Critical_ROB_Stalls_Percent_3_Bucket_2: 235327
Non-critical_ROB_Stalls_Percent_3_Bucket_2: 76148
Critical_ROB_Stalls_Percent_3_Bucket_3: 57309
Non-critical_ROB_Stalls_Percent_3_Bucket_3: 21683
Critical_ROB_Stalls_Percent_3_Bucket_4: 15537
Non-critical_ROB_Stalls_Percent_3_Bucket_4: 5126
Critical_ROB_Stalls_Percent_3_Bucket_5: 5506
Non-critical_ROB_Stalls_Percent_3_Bucket_5: 2496
Critical_ROB_Stalls_Percent_3_Bucket_6: 13087
Non-critical_ROB_Stalls_Percent_3_Bucket_6: 5276
Critical_ROB_Stalls_Percent_4_Bucket_0: 1067562
Non-critical_ROB_Stalls_Percent_4_Bucket_0: 595405
Critical_ROB_Stalls_Percent_4_Bucket_1: 708184
Non-critical_ROB_Stalls_Percent_4_Bucket_1: 219647
Critical_ROB_Stalls_Percent_4_Bucket_2: 249640
Non-critical_ROB_Stalls_Percent_4_Bucket_2: 61835
Critical_ROB_Stalls_Percent_4_Bucket_3: 59618
Non-critical_ROB_Stalls_Percent_4_Bucket_3: 19374
Critical_ROB_Stalls_Percent_4_Bucket_4: 16358
Non-critical_ROB_Stalls_Percent_4_Bucket_4: 4305
Critical_ROB_Stalls_Percent_4_Bucket_5: 5819
Non-critical_ROB_Stalls_Percent_4_Bucket_5: 2183
Critical_ROB_Stalls_Percent_4_Bucket_6: 13401
Non-critical_ROB_Stalls_Percent_4_Bucket_6: 4962
Critical_ROB_Stalls_Percent_5_Bucket_0: 1150039
Non-critical_ROB_Stalls_Percent_5_Bucket_0: 512928
Critical_ROB_Stalls_Percent_5_Bucket_1: 754201
Non-critical_ROB_Stalls_Percent_5_Bucket_1: 173630
Critical_ROB_Stalls_Percent_5_Bucket_2: 264211
Non-critical_ROB_Stalls_Percent_5_Bucket_2: 47264
Critical_ROB_Stalls_Percent_5_Bucket_3: 63976
Non-critical_ROB_Stalls_Percent_5_Bucket_3: 15016
Critical_ROB_Stalls_Percent_5_Bucket_4: 17240
Non-critical_ROB_Stalls_Percent_5_Bucket_4: 3423
Critical_ROB_Stalls_Percent_5_Bucket_5: 6407
Non-critical_ROB_Stalls_Percent_5_Bucket_5: 1595
Critical_ROB_Stalls_Percent_5_Bucket_6: 16039
Non-critical_ROB_Stalls_Percent_5_Bucket_6: 2324
Critical_ROB_Stalls_Percent_6_Bucket_0: 1226131
Non-critical_ROB_Stalls_Percent_6_Bucket_0: 436836
Critical_ROB_Stalls_Percent_6_Bucket_1: 802997
Non-critical_ROB_Stalls_Percent_6_Bucket_1: 124834
Critical_ROB_Stalls_Percent_6_Bucket_2: 281791
Non-critical_ROB_Stalls_Percent_6_Bucket_2: 29684
Critical_ROB_Stalls_Percent_6_Bucket_3: 70642
Non-critical_ROB_Stalls_Percent_6_Bucket_3: 8350
Critical_ROB_Stalls_Percent_6_Bucket_4: 18096
Non-critical_ROB_Stalls_Percent_6_Bucket_4: 2567
Critical_ROB_Stalls_Percent_6_Bucket_5: 6566
Non-critical_ROB_Stalls_Percent_6_Bucket_5: 1436
Critical_ROB_Stalls_Percent_6_Bucket_6: 16741
Non-critical_ROB_Stalls_Percent_6_Bucket_6: 1622
Critical_ROB_Stalls_Percent_7_Bucket_0: 1325694
Non-critical_ROB_Stalls_Percent_7_Bucket_0: 337273
Critical_ROB_Stalls_Percent_7_Bucket_1: 843831
Non-critical_ROB_Stalls_Percent_7_Bucket_1: 84000
Critical_ROB_Stalls_Percent_7_Bucket_2: 289392
Non-critical_ROB_Stalls_Percent_7_Bucket_2: 22083
Critical_ROB_Stalls_Percent_7_Bucket_3: 72576
Non-critical_ROB_Stalls_Percent_7_Bucket_3: 6416
Critical_ROB_Stalls_Percent_7_Bucket_4: 18737
Non-critical_ROB_Stalls_Percent_7_Bucket_4: 1926
Critical_ROB_Stalls_Percent_7_Bucket_5: 6995
Non-critical_ROB_Stalls_Percent_7_Bucket_5: 1007
Critical_ROB_Stalls_Percent_7_Bucket_6: 17000
Non-critical_ROB_Stalls_Percent_7_Bucket_6: 1363
Critical_ROB_Stalls_Percent_8_Bucket_0: 1428318
Non-critical_ROB_Stalls_Percent_8_Bucket_0: 234649
Critical_ROB_Stalls_Percent_8_Bucket_1: 880073
Non-critical_ROB_Stalls_Percent_8_Bucket_1: 47758
Critical_ROB_Stalls_Percent_8_Bucket_2: 297732
Non-critical_ROB_Stalls_Percent_8_Bucket_2: 13743
Critical_ROB_Stalls_Percent_8_Bucket_3: 74848
Non-critical_ROB_Stalls_Percent_8_Bucket_3: 4144
Critical_ROB_Stalls_Percent_8_Bucket_4: 19605
Non-critical_ROB_Stalls_Percent_8_Bucket_4: 1058
Critical_ROB_Stalls_Percent_8_Bucket_5: 7309
Non-critical_ROB_Stalls_Percent_8_Bucket_5: 693
Critical_ROB_Stalls_Percent_8_Bucket_6: 17626
Non-critical_ROB_Stalls_Percent_8_Bucket_6: 737
Average ROB occupancy Load Stall Begin: 48.9204
Average ROB occupancy Load Stall End: 58.3486
Min ROB occupancy Load Stall Begin: 1
Max ROB occupancy Load Stall Begin: 352
Min ROB occupancy Load Stall End: 1
Max ROB occupancy Load Stall End: 352
Average ROB occupancy Critical Load Stall Begin: -nan
Average ROB occupancy Critical Load Stall End: -nan
Min ROB occupancy Critical Load Stall Begin: 400
Max ROB occupancy Critical Load Stall Begin: 0
Min ROB occupancy Critical Load Stall End: 400
Max ROB occupancy Critical Load Stall End: 0
 ROB Load Stall Begin Bucket Count 0: 1975337
 ROB Load Stall End Bucket Count 0: 1662967
 ROB Critical Load Stall Begin Bucket Count 0: 0
 ROB Critical Load Stall End Bucket Count 0: 0
 ROB Load Stall Begin Bucket Count 1: 726502
 ROB Load Stall End Bucket Count 1: 927831
 ROB Critical Load Stall Begin Bucket Count 1: 0
 ROB Critical Load Stall End Bucket Count 1: 0
 ROB Load Stall Begin Bucket Count 2: 231014
 ROB Load Stall End Bucket Count 2: 311475
 ROB Critical Load Stall Begin Bucket Count 2: 0
 ROB Critical Load Stall End Bucket Count 2: 0
 ROB Load Stall Begin Bucket Count 3: 56950
 ROB Load Stall End Bucket Count 3: 78992
 ROB Critical Load Stall Begin Bucket Count 3: 0
 ROB Critical Load Stall End Bucket Count 3: 0
 ROB Load Stall Begin Bucket Count 4: 15055
 ROB Load Stall End Bucket Count 4: 20663
 ROB Critical Load Stall Begin Bucket Count 4: 0
 ROB Critical Load Stall End Bucket Count 4: 0
 ROB Load Stall Begin Bucket Count 5: 6686
 ROB Load Stall End Bucket Count 5: 8002
 ROB Critical Load Stall Begin Bucket Count 5: 0
 ROB Critical Load Stall End Bucket Count 5: 0
 ROB Load Stall Begin Bucket Count 6: 16749
 ROB Load Stall End Bucket Count 6: 18363
 ROB Critical Load Stall Begin Bucket Count 6: 0
 ROB Critical Load Stall End Bucket Count 6: 0
PIST Tag Read Accesses: 2573460
PIST Read Accesses: 1286730
PIST Tag Write Accesses: 2573460
PIST Write Accesses: 1286730
Criticality detector called times: 2934055
Max global_stall_cycles_count: 2887618
Threshold Modified: 0 times, factor: 0
Sturdy critical IP cache stats: 
 Unused entries: 0
CIC Tag Read Accesses: 0
CIC Read Accesses: 0
CIC Tag Write Accesses: 0
CIC Write Accesses: 0
Wobbly critical IP cache stats: 
 Unused entries: 109
CIC Tag Read Accesses: 153247834
CIC Read Accesses: 0
CIC Tag Write Accesses: 2228
CIC Write Accesses: 0
ITLB TOTAL     ACCESS:    9203324  HIT:    9079669  MISS:     123655  HIT %:    98.6564  MISS %:    1.34359   MPKI: 2.4731
ITLB LOAD TRANSLATION ACCESS:    8312871  HIT:    8268950  MISS:      43921  HIT %:    99.4717  MISS %:   0.528349   MPKI: 0.87842
ITLB TRANSLATION FROM L1D PREFETCHER ACCESS:     890453  HIT:     810719  MISS:      79734  HIT %:    91.0457  MISS %:    8.95432   MPKI: 1.59468
ITLB PREFETCH  REQUESTED:          0  ISSUED:          0  USEFUL:      68048  USELESS:      11687
ITLB USEFUL LOAD PREFETCHES:      68048 PREFETCH ISSUED TO LOWER LEVEL:          0  ACCURACY: inf
ITLB TIMELY PREFETCHES:      68048 LATE PREFETCHES: 215 DROPPED PREFETCHES: 255
ITLB PREFETCHES SAME FILL-ORIGIN LEVEL: 0 DIFFERENT FILL-ORIGIN LEVEL: 0
ITLB AVERAGE MISS LATENCY: 81036.3 cycles
ITLB RQ	ACCESS:   12620912	FORWARD:          0	MERGED:    3398997	TO_CACHE:    9221915

DTLB TOTAL     ACCESS:   10064212  HIT:    9905627  MISS:     158585  HIT %:    98.4243  MISS %:    1.57573   MPKI: 3.1717
DTLB LOAD TRANSLATION ACCESS:   10064212  HIT:    9905627  MISS:     158585  HIT %:    98.4243  MISS %:    1.57573   MPKI: 3.1717
DTLB PREFETCH  REQUESTED:          0  ISSUED:          0  USEFUL:          0  USELESS:          0
DTLB USEFUL LOAD PREFETCHES:          0 PREFETCH ISSUED TO LOWER LEVEL:          0  ACCURACY: -nan
DTLB TIMELY PREFETCHES:          0 LATE PREFETCHES: 0 DROPPED PREFETCHES: 0
DTLB PREFETCHES SAME FILL-ORIGIN LEVEL: 0 DIFFERENT FILL-ORIGIN LEVEL: 0
DTLB AVERAGE MISS LATENCY: 11.072 cycles
DTLB RQ	ACCESS:   13624111	FORWARD:          0	MERGED:    3542402	TO_CACHE:   10081709

STLB TOTAL     ACCESS:     311758  HIT:     303537  MISS:       8221  HIT %:     97.363  MISS %:    2.63698   MPKI: 0.16442
STLB LOAD TRANSLATION ACCESS:     202291  HIT:     194956  MISS:       7335  HIT %:     96.374  MISS %:    3.62596   MPKI: 0.1467
STLB TRANSLATION FROM L1D PREFETCHER ACCESS:     109467  HIT:     108581  MISS:        886  HIT %:    99.1906  MISS %:   0.809376   MPKI: 0.01772
STLB PREFETCH  REQUESTED:          0  ISSUED:          0  USEFUL:        288  USELESS:        599
STLB USEFUL LOAD PREFETCHES:        288 PREFETCH ISSUED TO LOWER LEVEL:          0  ACCURACY: inf
STLB TIMELY PREFETCHES:        288 LATE PREFETCHES: 0 DROPPED PREFETCHES: 255
STLB PREFETCHES SAME FILL-ORIGIN LEVEL: 0 DIFFERENT FILL-ORIGIN LEVEL: 0
STLB AVERAGE MISS LATENCY: 46.6795 cycles
STLB RQ	ACCESS:     347079	FORWARD:          0	MERGED:      35066	TO_CACHE:     312013

STLB Hit, L1D data hit: 0
STLB Hit, L2C data hit: 0
STLB Hit, LLC data hit: 0
STLB Hit, LLC data miss: 0
STLB STLB hints to L2: 0
L1D TOTAL     ACCESS:   13463169  HIT:   13208820  MISS:     254349  HIT %:    98.1108  MISS %:    1.88922   MPKI: 5.08698
L1D LOAD      ACCESS:    7022307  HIT:    6892754  MISS:     129553  HIT %:    98.1551  MISS %:    1.84488   MPKI: 2.59106
L1D RFO       ACCESS:    6377492  HIT:    6280380  MISS:      97112  HIT %:    98.4773  MISS %:    1.52273   MPKI: 1.94224
L1D PREFETCH  ACCESS:      63370  HIT:      35686  MISS:      27684  HIT %:    56.3137  MISS %:    43.6863   MPKI: 0.55368
L1D PREFETCH  REQUESTED:     129178  ISSUED:     129171  USEFUL:      16174  USELESS:      11505
L1D USEFUL LOAD PREFETCHES:      16174 PREFETCH ISSUED TO LOWER LEVEL:      28440  ACCURACY: 56.8706
L1D TIMELY PREFETCHES:      16174 LATE PREFETCHES: 681 DROPPED PREFETCHES: 0
L1D PREFETCHES SAME FILL-ORIGIN LEVEL: 28440 DIFFERENT FILL-ORIGIN LEVEL: 0
L1D AVERAGE MISS LATENCY: 157617 cycles
L1D RQ	ACCESS:   11303971	FORWARD:          0	MERGED:    4095675	TO_CACHE:    7032887
L1D WQ	ACCESS:    6777772	FORWARD:     175412	MERGED:     186548	TO_CACHE:    6591224
L1D PQ	ACCESS:      64587	FORWARD:          0	MERGED:          0	TO_CACHE:      64584

L1D UNIQUE REGIONS ACCESSED: 0
L1D REGIONS CONFLICTS: 0
L1D Cross Page Prefetch Requests: 0
L1D Same Page Prefetch Requests: 64587
L1D ROI Sum of L1D PQ occupancy: 927772
L1D PREFETCHES PUSHED FROM L2C: 0
L1I TOTAL     ACCESS:   12533755  HIT:   11580220  MISS:     953535  HIT %:    92.3923  MISS %:    7.60774   MPKI: 19.0707
L1I LOAD      ACCESS:    9989273  HIT:    9815573  MISS:     173700  HIT %:    98.2611  MISS %:    1.73887   MPKI: 3.474
L1I PREFETCH  ACCESS:    2544482  HIT:    1764647  MISS:     779835  HIT %:    69.3519  MISS %:    30.6481   MPKI: 15.5967
L1I PREFETCH  REQUESTED:    2724969  ISSUED:    2720836  USEFUL:     528154  USELESS:     251687
L1I USEFUL LOAD PREFETCHES:     528154 PREFETCH ISSUED TO LOWER LEVEL:     796051  ACCURACY: 66.3468
L1I TIMELY PREFETCHES:     528154 LATE PREFETCHES: 16216 DROPPED PREFETCHES: 512
L1I PREFETCHES SAME FILL-ORIGIN LEVEL: 796051 DIFFERENT FILL-ORIGIN LEVEL: 0
L1I AVERAGE MISS LATENCY: 783762 cycles
L1I RQ	ACCESS:   15030073	FORWARD:          0	MERGED:    5017475	TO_CACHE:   10012598
L1I PQ	ACCESS:    2720836	FORWARD:          0	MERGED:     112522	TO_CACHE:    2608314

BTB TOTAL     ACCESS:    6850856  HIT:    6216517  MISS:     634339  HIT %:    90.7407  MISS %:    9.25927   MPKI: 12.6868
BTB BRANCH_DIRECT_JUMP	ACCESS:     517397  HIT:     498758  MISS:      18639
BTB BRANCH_INDIRECT	ACCESS:     112347  HIT:      56826  MISS:      55521
BTB BRANCH_CONDITIONAL	ACCESS:    4051503  HIT:    3997511  MISS:      53992
BTB BRANCH_DIRECT_CALL	ACCESS:     960973  HIT:     922167  MISS:      38806
BTB BRANCH_INDIRECT_CALL	ACCESS:     123707  HIT:      94699  MISS:      29008
BTB BRANCH_RETURN	ACCESS:    1084929  HIT:     646556  MISS:     438373
BTB BRANCH_OTHER ACCESS:          0  HIT:          0  MISS:          0

L2C TOTAL     ACCESS:    1508588  HIT:    1272439  MISS:     236149  HIT %:    84.3464  MISS %:    15.6536   MPKI: 4.72298
L2C LOAD      ACCESS:     286355  HIT:     213199  MISS:      73156  HIT %:    74.4527  MISS %:    25.5473   MPKI: 1.46312
L2C DATA LOAD MPKI: 0.86074
L2C INSTRUCTION LOAD MPKI: 0.60238
L2C RFO       ACCESS:      97036  HIT:      30544  MISS:      66492  HIT %:     31.477  MISS %:     68.523   MPKI: 1.32984
L2C PREFETCH  ACCESS:     997541  HIT:     909073  MISS:      88468  HIT %:    91.1314  MISS %:    8.86861   MPKI: 1.76936
L2C DATA PREFETCH MPKI: 0.61982
L2C INSTRUCTION PREFETCH MPKI: 1.14954
L2C WRITEBACK ACCESS:     118894  HIT:     112704  MISS:       6190  HIT %:    94.7937  MISS %:    5.20632   MPKI: 0.1238
L2C LOAD TRANSLATION ACCESS:       7609  HIT:       5901  MISS:       1708  HIT %:    77.5529  MISS %:    22.4471   MPKI: 0.03416
L2C TRANSLATION FROM L1D PREFETCHER ACCESS:       1153  HIT:       1018  MISS:        135  HIT %:    88.2914  MISS %:    11.7086   MPKI: 0.0027
L2C PREFETCH  REQUESTED:     351132  ISSUED:     351132  USEFUL:       8651  USELESS:      79466
L2C USEFUL LOAD PREFETCHES:       8651 PREFETCH ISSUED TO LOWER LEVEL:      88518  ACCURACY: 9.77315
L2C TIMELY PREFETCHES:       8651 LATE PREFETCHES: 50 DROPPED PREFETCHES: 0
L2C PREFETCHES SAME FILL-ORIGIN LEVEL: 15111 DIFFERENT FILL-ORIGIN LEVEL: 0
L2C AVERAGE MISS LATENCY: 65.4616 cycles
L2C RQ	ACCESS:     392155	FORWARD:          0	MERGED:          0	TO_CACHE:     392153
L2C WQ	ACCESS:     118894	FORWARD:          6	MERGED:          0	TO_CACHE:     118894
L2C PQ	ACCESS:    1175623	FORWARD:          0	MERGED:     177647	TO_CACHE:     997972

L2C Instructions Evicting Data 55603
L2C Translations Evicting Data 1120
L2C Data Evicting Data 86676
L2C Instructions Evicting Instructions 31351
L2C Translations Evicting Instructions 680
L2C Data Evicting Instructions 52729
L2C Instructions Evicting Translations 642
L2C Translations Evicting Translations 43
L2C Data Evicting Translations 1115
L2C Dense regions hint from L2: 0
PSCL5 TOTAL     ACCESS:       8476  HIT:       8476  MISS:          0  HIT %:        100  MISS %:          0   MPKI: 0
PSCL5 LOAD TRANSLATION ACCESS:       7335  HIT:       7335  MISS:          0  HIT %:        100  MISS %:          0   MPKI: 0
PSCL5 TRANSLATION FROM L1D PREFETCHER ACCESS:       1141  HIT:       1141  MISS:          0  HIT %:        100  MISS %:          0   MPKI: 0
PSCL5 PREFETCH  REQUESTED:          0  ISSUED:          0  USEFUL:          0  USELESS:          0
PSCL5 USEFUL LOAD PREFETCHES:          0 PREFETCH ISSUED TO LOWER LEVEL:          0  ACCURACY: -nan
PSCL5 TIMELY PREFETCHES:          0 LATE PREFETCHES: 0 DROPPED PREFETCHES: 0
PSCL5 PREFETCHES SAME FILL-ORIGIN LEVEL: 0 DIFFERENT FILL-ORIGIN LEVEL: 0

PSCL4 TOTAL     ACCESS:       8476  HIT:       8476  MISS:          0  HIT %:        100  MISS %:          0   MPKI: 0
PSCL4 LOAD TRANSLATION ACCESS:       7335  HIT:       7335  MISS:          0  HIT %:        100  MISS %:          0   MPKI: 0
PSCL4 TRANSLATION FROM L1D PREFETCHER ACCESS:       1141  HIT:       1141  MISS:          0  HIT %:        100  MISS %:          0   MPKI: 0
PSCL4 PREFETCH  REQUESTED:          0  ISSUED:          0  USEFUL:          0  USELESS:          0
PSCL4 USEFUL LOAD PREFETCHES:          0 PREFETCH ISSUED TO LOWER LEVEL:          0  ACCURACY: -nan
PSCL4 TIMELY PREFETCHES:          0 LATE PREFETCHES: 0 DROPPED PREFETCHES: 0
PSCL4 PREFETCHES SAME FILL-ORIGIN LEVEL: 0 DIFFERENT FILL-ORIGIN LEVEL: 0

PSCL3 TOTAL     ACCESS:       8468  HIT:       8459  MISS:          9  HIT %:    99.8937  MISS %:   0.106282   MPKI: 0.00018
PSCL3 LOAD TRANSLATION ACCESS:       7328  HIT:       7319  MISS:          9  HIT %:    99.8772  MISS %:   0.122817   MPKI: 0.00018
PSCL3 TRANSLATION FROM L1D PREFETCHER ACCESS:       1140  HIT:       1140  MISS:          0  HIT %:        100  MISS %:          0   MPKI: 0
PSCL3 PREFETCH  REQUESTED:          0  ISSUED:          0  USEFUL:          0  USELESS:          0
PSCL3 USEFUL LOAD PREFETCHES:          0 PREFETCH ISSUED TO LOWER LEVEL:          0  ACCURACY: -nan
PSCL3 TIMELY PREFETCHES:          0 LATE PREFETCHES: 0 DROPPED PREFETCHES: 0
PSCL3 PREFETCHES SAME FILL-ORIGIN LEVEL: 0 DIFFERENT FILL-ORIGIN LEVEL: 0

PSCL2 TOTAL     ACCESS:       8476  HIT:       8196  MISS:        280  HIT %:    96.6966  MISS %:    3.30345   MPKI: 0.0056
PSCL2 LOAD TRANSLATION ACCESS:       7347  HIT:       7067  MISS:        280  HIT %:    96.1889  MISS %:    3.81108   MPKI: 0.0056
PSCL2 TRANSLATION FROM L1D PREFETCHER ACCESS:       1129  HIT:       1129  MISS:          0  HIT %:        100  MISS %:          0   MPKI: 0
PSCL2 PREFETCH  REQUESTED:          0  ISSUED:          0  USEFUL:          0  USELESS:          0
PSCL2 USEFUL LOAD PREFETCHES:          0 PREFETCH ISSUED TO LOWER LEVEL:          0  ACCURACY: -nan
PSCL2 TIMELY PREFETCHES:          0 LATE PREFETCHES: 0 DROPPED PREFETCHES: 0
PSCL2 PREFETCHES SAME FILL-ORIGIN LEVEL: 0 DIFFERENT FILL-ORIGIN LEVEL: 0

LLC TOTAL     ACCESS:     304155  HIT:     242852  MISS:      61303  HIT %:    79.8448  MISS %:    20.1552   MPKI: 1.22606
LLC LOAD      ACCESS:      73106  HIT:      61723  MISS:      11383  HIT %:    84.4295  MISS %:    15.5705   MPKI: 0.22766
LLC RFO       ACCESS:      66490  HIT:      32394  MISS:      34096  HIT %:    48.7201  MISS %:    51.2799   MPKI: 0.68192
LLC PREFETCH  ACCESS:      88518  HIT:      73647  MISS:      14871  HIT %:       83.2  MISS %:       16.8   MPKI: 0.29742
LLC WRITEBACK ACCESS:      74198  HIT:      73559  MISS:        639  HIT %:    99.1388  MISS %:   0.861209   MPKI: 0.01278
LLC LOAD TRANSLATION ACCESS:       1708  HIT:       1396  MISS:        312  HIT %:     81.733  MISS %:     18.267   MPKI: 0.00624
LLC TRANSLATION FROM L1D PREFETCHER ACCESS:        135  HIT:        133  MISS:          2  HIT %:    98.5185  MISS %:    1.48148   MPKI: 4e-05
LLC PREFETCH  REQUESTED:          0  ISSUED:          0  USEFUL:        379  USELESS:       8449
LLC USEFUL LOAD PREFETCHES:        379 PREFETCH ISSUED TO LOWER LEVEL:      14871  ACCURACY: 2.54858
LLC TIMELY PREFETCHES:        379 LATE PREFETCHES: 0 DROPPED PREFETCHES: 0
LLC PREFETCHES SAME FILL-ORIGIN LEVEL: 0 DIFFERENT FILL-ORIGIN LEVEL: 0
LLC AVERAGE MISS LATENCY: 138.999 cycles
LLC RQ	ACCESS:     141441	FORWARD:          0	MERGED:          0	TO_CACHE:     141439
LLC WQ	ACCESS:      74199	FORWARD:          2	MERGED:          0	TO_CACHE:      74199
LLC PQ	ACCESS:      88518	FORWARD:          0	MERGED:          0	TO_CACHE:      88518

LLC Dense regions hint to LLC: 0

RAW hits: 1751393
Loads Generated: 13055366
Loads sent to L1D: 11303971
Stores Generated: 6777761
Stores sent to L1D: 6777772
Major fault: 0 Minor fault: 3152
Allocated PAGES: 3152
I-Shadow cache 408 bytes
Touched + WorthPF tables 6144 bytes 
MMA filter 174 bytes 
FNL filter 272 bytes 
TOTAL PREFETCHER STORAGE SIZE: 25174 bytes
CPU 0 L1I next line prefetcher final stats

stream: 
stream:times selected: 39013
stream:pref_filled: 26309
stream:pref_useful: 15256
stream:pref_late: 427
stream:misses: 552
stream:misses_by_poll: 0

CS: 
CS:times selected: 25717
CS:pref_filled: 839
CS:pref_useful: 770
CS:pref_late: 37
CS:misses: 352
CS:misses_by_poll: 11

CPLX: 
CPLX:times selected: 13144
CPLX:pref_filled: 513
CPLX:pref_useful: 135
CPLX:pref_late: 6
CPLX:misses: 2502
CPLX:misses_by_poll: 2

NL_L1: 
NL:times selected: 119
NL:pref_filled: 19
NL:pref_useful: 11
NL:pref_late: 2
NL:misses: 33
NL:misses_by_poll: 0

total selections: 77993
total_filled: 27684
total_useful: 16174
total_late: 681
total_polluted: 13
total_misses_after_warmup: 3655
conflicts: 330
Degree Incremented Times: 490
Degree Decremented Times: 608

L1 IP Table Write Accesses: 131978
L1 IP Table Read Accesses: 131648
L1 RST Write Accesses: 39015
L1 RST Read Accesses: 78022
L1 CSPT Write Accesses: 39015
L1 CSPT Read Accesses: 56061
L1 RR Filter Tag Write Accesses: 64594
L1 RR Filter Tag Read Accesses: 8308929
L1 IP Table Tag Write Accesses: 133211
L1 IP Table Tag Read Accesses: 133211
L1 RST Tag Write Accesses: 56
L1 RST Tag Read Accesses: 348204
L1 RR Filter Write Accesses: 0
L1 RR Filter Read Accesses: 294345
test: 7322
L2 IP Table Read Accesses: 357690
L2 IP Table Write Accesses: 688028
L2 IP Table Tag Read Accesses: 346269
L2 IP Table Tag Write Accesses: 346269

DRAM Statistics
 CHANNEL 0
 RQ ROW_BUFFER_HIT:      24472  ROW_BUFFER_MISS:      36191
 DBUS_CONGESTED:         29
 WQ ROW_BUFFER_HIT:       7752  ROW_BUFFER_MISS:      32131  FULL:          0

 AVG_CONGESTED_CYCLE: 3
 All warmup complete: 2
Channel 0 Bank busy for read cycles: 0
Channel 0 Bank busy for write cycles: 0
Channel 0
Rank 0
0banks busy for read cycles: 57867277
0banks busy for write cycles: 12166
1banks busy for read cycles: 2589690
1banks busy for write cycles: 1606866
2banks busy for read cycles: 401135
2banks busy for write cycles: 372824
3banks busy for read cycles: 135050
3banks busy for write cycles: 149432
4banks busy for read cycles: 99749
4banks busy for write cycles: 95115
5banks busy for read cycles: 78890
5banks busy for write cycles: 79171
6banks busy for read cycles: 86472
6banks busy for write cycles: 66701
7banks busy for read cycles: 111264
7banks busy for write cycles: 76983
8banks busy for read cycles: 96524
8banks busy for write cycles: 238515

CPU 0 Branch Prediction Accuracy: 99.2117% MPKI: 1.49752 Average ROB Occupancy at Mispredict: 47.6811
Branch types
NOT_BRANCH: 40501574 81.0031%
BRANCH_DIRECT_JUMP: 517397 1.03479%
BRANCH_INDIRECT: 112347 0.224694%
BRANCH_CONDITIONAL: 6698733 13.3975%
BRANCH_DIRECT_CALL: 960973 1.92195%
BRANCH_INDIRECT_CALL: 123707 0.247414%
BRANCH_RETURN: 1084929 2.16986%
BRANCH_OTHER: 0 0%

DRAM PAGES: 1048576
Allocated PAGES: 3152
