Initialize SIGNATURE TABLE
ST_SET: 1
ST_WAY: 256
ST_TAG_BIT: 16
ST_TAG_MASK: ffff

Initialize PATTERN TABLE
PT_SET: 512
PT_WAY: 4
SIG_DELTA_BIT: 7
C_SIG_BIT: 4
C_DELTA_BIT: 4

Initialize PREFETCH FILTER
FILTER_SET: 1024

*** ChampSim Multicore Out-of-Order Simulator ***

Warmup Instructions: 50000000
Simulation Instructions: 50000000
Number of CPUs: 1
LLC sets: 2048
LLC ways: 16
Off-chip DRAM Size: 4096 MB Channels: 1 Width: 64-bit Data Rate: 6400 MT/s
CPU 0 runs ../IPC-traces//client_001.champsimtrace.xz
.xz
NUM_OF_IPS_IN_CRITICAL_IP_TRAINING: 64
NUM_OF_CRITICAL_IP_TRAINING_TABLE_WAYS: 2
NUM_OF_CRITICAL_IP_TRAINING_TABLE_SETS: 32
WOBBLY_CRITICAL_IP_CACHE_SETS: 32
WOBBLY_CRITICAL_IP_CACHE_WAYS: 4
BTB has LRU replacement policy
ITLB has LRU replacement policy
DTLB has LRU replacement policy
STLB has LRU replacement policy
CPU 0 L1I next line prefetcher
L1I has LRU replacement policy
L1D has LRU replacement policy
Initialize SRRIP state for L2C
Initialize DRRIP state for LLC
Heartbeat CPU 0 instructions: 10000003 cycles: 2872494 heartbeat IPC: 3.4813 cumulative IPC: 3.4813 (Simulation time: 0 hr 3 min 3 sec) 
Heartbeat CPU 0 instructions: 20000001 cycles: 5809139 heartbeat IPC: 3.40525 cumulative IPC: 3.44285 (Simulation time: 0 hr 5 min 22 sec) 
Heartbeat CPU 0 instructions: 30000001 cycles: 8654187 heartbeat IPC: 3.51488 cumulative IPC: 3.46653 (Simulation time: 0 hr 7 min 30 sec) 
Heartbeat CPU 0 instructions: 40000001 cycles: 11710557 heartbeat IPC: 3.27186 cumulative IPC: 3.41572 (Simulation time: 0 hr 9 min 28 sec) 
Heartbeat CPU 0 instructions: 50000001 cycles: 14529312 heartbeat IPC: 3.54767 cumulative IPC: 3.44132 (Simulation time: 0 hr 11 min 13 sec) 

Warmup complete CPU 0 instructions: 50000001 cycles: 14529312 (Simulation time: 0 hr 11 min 13 sec) 

Heartbeat CPU 0 instructions: 60000000 cycles: 30444120 heartbeat IPC: 0.628346 cumulative IPC: 0.628346 (Simulation time: 0 hr 13 min 44 sec) 
Heartbeat CPU 0 instructions: 70000000 cycles: 42954341 heartbeat IPC: 0.799346 cumulative IPC: 0.703605 (Simulation time: 0 hr 15 min 49 sec) 
Heartbeat CPU 0 instructions: 80000002 cycles: 59991296 heartbeat IPC: 0.586959 cumulative IPC: 0.659892 (Simulation time: 0 hr 18 min 20 sec) 
Heartbeat CPU 0 instructions: 90000001 cycles: 72097126 heartbeat IPC: 0.826048 cumulative IPC: 0.694833 (Simulation time: 0 hr 20 min 22 sec) 
Heartbeat CPU 0 instructions: 100000002 cycles: 88294019 heartbeat IPC: 0.617402 cumulative IPC: 0.677831 (Simulation time: 0 hr 22 min 33 sec) 
Finished CPU 0 instructions: 50000001 cycles: 73764707 cumulative IPC: 0.677831 (Simulation time: 0 hr 22 min 33 sec) 

ChampSim completed all CPUs

Region of Interest Statistics

CPU 0 cumulative IPC: 0.677831 instructions: 50000001 cycles: 73764707

CPU 0 Average Load ROB stall cycles: 2.18466e+07
CPU 0 Fraction of times ROB stalled by Loads: 43.2707
CPU 0 Percentage of Load stall cycles in Total stall cycles: 2.51192e+08
Issued all: 29213351
Issued LT all: 23086197
rob_not_full_when_issued_lt_all: 19893587
Issued LT one: 18753290
rob_not_full_when_issued_lt_one: 15892979
 Total stall cycles: 61202334
 Total load stall cycles: 153735271165417
CPU 0 NUM of IPS identified critical: 0
CPU 0 Num of Load IPs stalling ROB: 8328
Threshold modification factor: 0
Max PIST entries: 64
Min PIST entries: 0
Avg PIST entries: 31.94
Trouble in retire width: 0.91441
MaC = Marked as critical.
lt_50_percent_before_Mac: 0
gt_90_percent_before_Mac: 0
gt_75_percent_before_Mac: 0
gt_50_percent_before_Mac: 0
stall_proportion_bin_same_before_after: 0
stall_proportion_bin_lower_before_after: 0
stall_proportion_bin_upper_before_after: 0
average_stall_proportion_before: -nan
average_stall_proportion_after: -nan
Critical IP stalls, total frequency: 0
Non-critical IP stalls, total frequency: 3044971
Total Freq all stalling IPs: 3044971
stat_90_percent_critical_ip_stalls_freq: 2740677
stat_90_percent_non_critical_ip_stalls_freq: 304294
Critical_IP_ROB_Stalls_Bucket_0: 0
Non-critical_IP_ROB_Stalls_Bucket_0: 1297110
Critical_IP_ROB_Stalls_Bucket_1: 0
Non-critical_IP_ROB_Stalls_Bucket_1: 736499
Critical_IP_ROB_Stalls_Bucket_2: 0
Non-critical_IP_ROB_Stalls_Bucket_2: 430939
Critical_IP_ROB_Stalls_Bucket_3: 0
Non-critical_IP_ROB_Stalls_Bucket_3: 247802
Critical_IP_ROB_Stalls_Bucket_4: 0
Non-critical_IP_ROB_Stalls_Bucket_4: 113986
Critical_IP_ROB_Stalls_Bucket_5: 0
Non-critical_IP_ROB_Stalls_Bucket_5: 60258
Critical_IP_ROB_Stalls_Bucket_6: 0
Non-critical_IP_ROB_Stalls_Bucket_6: 158377
0 => IPs accounting for >50 percent of stalls, 1 => 55, 2 => 60, 3 => 65 and so on till 90.
percent50: 50.0596 num IPs:  110
percent55: 55.0238 num IPs: 144
percent60: 60.0072 num IPs: 187
percent65: 65.0435 num IPs: 242
percent70: 70.0344 num IPs: 309
percent75: 75.0063 num IPs: 392
percent80: 80.023 num IPs: 498
percent85: 85.0165 num IPs: 653
percent90: 90.0067 num IPs: 926
Critical_ROB_Stalls_Percent_0_Bucket_0: 527691
Non-critical_ROB_Stalls_Percent_0_Bucket_0: 769419
Critical_ROB_Stalls_Percent_0_Bucket_1: 312575
Non-critical_ROB_Stalls_Percent_0_Bucket_1: 423924
Critical_ROB_Stalls_Percent_0_Bucket_2: 263915
Non-critical_ROB_Stalls_Percent_0_Bucket_2: 167024
Critical_ROB_Stalls_Percent_0_Bucket_3: 170060
Non-critical_ROB_Stalls_Percent_0_Bucket_3: 77742
Critical_ROB_Stalls_Percent_0_Bucket_4: 76451
Non-critical_ROB_Stalls_Percent_0_Bucket_4: 37535
Critical_ROB_Stalls_Percent_0_Bucket_5: 40650
Non-critical_ROB_Stalls_Percent_0_Bucket_5: 19608
Critical_ROB_Stalls_Percent_0_Bucket_6: 132959
Non-critical_ROB_Stalls_Percent_0_Bucket_6: 25418
Critical_ROB_Stalls_Percent_1_Bucket_0: 604572
Non-critical_ROB_Stalls_Percent_1_Bucket_0: 692538
Critical_ROB_Stalls_Percent_1_Bucket_1: 348470
Non-critical_ROB_Stalls_Percent_1_Bucket_1: 388029
Critical_ROB_Stalls_Percent_1_Bucket_2: 284497
Non-critical_ROB_Stalls_Percent_1_Bucket_2: 146442
Critical_ROB_Stalls_Percent_1_Bucket_3: 180209
Non-critical_ROB_Stalls_Percent_1_Bucket_3: 67593
Critical_ROB_Stalls_Percent_1_Bucket_4: 81090
Non-critical_ROB_Stalls_Percent_1_Bucket_4: 32896
Critical_ROB_Stalls_Percent_1_Bucket_5: 42453
Non-critical_ROB_Stalls_Percent_1_Bucket_5: 17805
Critical_ROB_Stalls_Percent_1_Bucket_6: 134169
Non-critical_ROB_Stalls_Percent_1_Bucket_6: 24208
Critical_ROB_Stalls_Percent_2_Bucket_0: 678047
Non-critical_ROB_Stalls_Percent_2_Bucket_0: 619063
Critical_ROB_Stalls_Percent_2_Bucket_1: 388598
Non-critical_ROB_Stalls_Percent_2_Bucket_1: 347901
Critical_ROB_Stalls_Percent_2_Bucket_2: 301698
Non-critical_ROB_Stalls_Percent_2_Bucket_2: 129241
Critical_ROB_Stalls_Percent_2_Bucket_3: 190730
Non-critical_ROB_Stalls_Percent_2_Bucket_3: 57072
Critical_ROB_Stalls_Percent_2_Bucket_4: 86234
Non-critical_ROB_Stalls_Percent_2_Bucket_4: 27752
Critical_ROB_Stalls_Percent_2_Bucket_5: 45371
Non-critical_ROB_Stalls_Percent_2_Bucket_5: 14887
Critical_ROB_Stalls_Percent_2_Bucket_6: 136523
Non-critical_ROB_Stalls_Percent_2_Bucket_6: 21854
Critical_ROB_Stalls_Percent_3_Bucket_0: 756645
Non-critical_ROB_Stalls_Percent_3_Bucket_0: 540465
Critical_ROB_Stalls_Percent_3_Bucket_1: 432488
Non-critical_ROB_Stalls_Percent_3_Bucket_1: 304011
Critical_ROB_Stalls_Percent_3_Bucket_2: 316626
Non-critical_ROB_Stalls_Percent_3_Bucket_2: 114313
Critical_ROB_Stalls_Percent_3_Bucket_3: 198209
Non-critical_ROB_Stalls_Percent_3_Bucket_3: 49593
Critical_ROB_Stalls_Percent_3_Bucket_4: 89214
Non-critical_ROB_Stalls_Percent_3_Bucket_4: 24772
Critical_ROB_Stalls_Percent_3_Bucket_5: 48033
Non-critical_ROB_Stalls_Percent_3_Bucket_5: 12225
Critical_ROB_Stalls_Percent_3_Bucket_6: 139340
Non-critical_ROB_Stalls_Percent_3_Bucket_6: 19037
Critical_ROB_Stalls_Percent_4_Bucket_0: 825978
Non-critical_ROB_Stalls_Percent_4_Bucket_0: 471132
Critical_ROB_Stalls_Percent_4_Bucket_1: 485372
Non-critical_ROB_Stalls_Percent_4_Bucket_1: 251127
Critical_ROB_Stalls_Percent_4_Bucket_2: 336463
Non-critical_ROB_Stalls_Percent_4_Bucket_2: 94476
Critical_ROB_Stalls_Percent_4_Bucket_3: 203067
Non-critical_ROB_Stalls_Percent_4_Bucket_3: 44735
Critical_ROB_Stalls_Percent_4_Bucket_4: 91387
Non-critical_ROB_Stalls_Percent_4_Bucket_4: 22599
Critical_ROB_Stalls_Percent_4_Bucket_5: 49012
Non-critical_ROB_Stalls_Percent_4_Bucket_5: 11246
Critical_ROB_Stalls_Percent_4_Bucket_6: 141248
Non-critical_ROB_Stalls_Percent_4_Bucket_6: 17129
Critical_ROB_Stalls_Percent_5_Bucket_0: 902460
Non-critical_ROB_Stalls_Percent_5_Bucket_0: 394650
Critical_ROB_Stalls_Percent_5_Bucket_1: 537012
Non-critical_ROB_Stalls_Percent_5_Bucket_1: 199487
Critical_ROB_Stalls_Percent_5_Bucket_2: 348744
Non-critical_ROB_Stalls_Percent_5_Bucket_2: 82195
Critical_ROB_Stalls_Percent_5_Bucket_3: 208318
Non-critical_ROB_Stalls_Percent_5_Bucket_3: 39484
Critical_ROB_Stalls_Percent_5_Bucket_4: 93998
Non-critical_ROB_Stalls_Percent_5_Bucket_4: 19988
Critical_ROB_Stalls_Percent_5_Bucket_5: 50079
Non-critical_ROB_Stalls_Percent_5_Bucket_5: 10179
Critical_ROB_Stalls_Percent_5_Bucket_6: 143308
Non-critical_ROB_Stalls_Percent_5_Bucket_6: 15069
Critical_ROB_Stalls_Percent_6_Bucket_0: 977696
Non-critical_ROB_Stalls_Percent_6_Bucket_0: 319414
Critical_ROB_Stalls_Percent_6_Bucket_1: 578128
Non-critical_ROB_Stalls_Percent_6_Bucket_1: 158371
Critical_ROB_Stalls_Percent_6_Bucket_2: 365882
Non-critical_ROB_Stalls_Percent_6_Bucket_2: 65057
Critical_ROB_Stalls_Percent_6_Bucket_3: 217145
Non-critical_ROB_Stalls_Percent_6_Bucket_3: 30657
Critical_ROB_Stalls_Percent_6_Bucket_4: 99545
Non-critical_ROB_Stalls_Percent_6_Bucket_4: 14441
Critical_ROB_Stalls_Percent_6_Bucket_5: 52088
Non-critical_ROB_Stalls_Percent_6_Bucket_5: 8170
Critical_ROB_Stalls_Percent_6_Bucket_6: 146194
Non-critical_ROB_Stalls_Percent_6_Bucket_6: 12183
Critical_ROB_Stalls_Percent_7_Bucket_0: 1058763
Non-critical_ROB_Stalls_Percent_7_Bucket_0: 238347
Critical_ROB_Stalls_Percent_7_Bucket_1: 618897
Non-critical_ROB_Stalls_Percent_7_Bucket_1: 117602
Critical_ROB_Stalls_Percent_7_Bucket_2: 381274
Non-critical_ROB_Stalls_Percent_7_Bucket_2: 49665
Critical_ROB_Stalls_Percent_7_Bucket_3: 224411
Non-critical_ROB_Stalls_Percent_7_Bucket_3: 23391
Critical_ROB_Stalls_Percent_7_Bucket_4: 102624
Non-critical_ROB_Stalls_Percent_7_Bucket_4: 11362
Critical_ROB_Stalls_Percent_7_Bucket_5: 53979
Non-critical_ROB_Stalls_Percent_7_Bucket_5: 6279
Critical_ROB_Stalls_Percent_7_Bucket_6: 148780
Non-critical_ROB_Stalls_Percent_7_Bucket_6: 9597
Critical_ROB_Stalls_Percent_8_Bucket_0: 1140234
Non-critical_ROB_Stalls_Percent_8_Bucket_0: 156876
Critical_ROB_Stalls_Percent_8_Bucket_1: 656344
Non-critical_ROB_Stalls_Percent_8_Bucket_1: 80155
Critical_ROB_Stalls_Percent_8_Bucket_2: 397633
Non-critical_ROB_Stalls_Percent_8_Bucket_2: 33306
Critical_ROB_Stalls_Percent_8_Bucket_3: 232308
Non-critical_ROB_Stalls_Percent_8_Bucket_3: 15494
Critical_ROB_Stalls_Percent_8_Bucket_4: 106278
Non-critical_ROB_Stalls_Percent_8_Bucket_4: 7708
Critical_ROB_Stalls_Percent_8_Bucket_5: 56205
Non-critical_ROB_Stalls_Percent_8_Bucket_5: 4053
Critical_ROB_Stalls_Percent_8_Bucket_6: 151675
Non-critical_ROB_Stalls_Percent_8_Bucket_6: 6702
Average ROB occupancy Load Stall Begin: 82.4065
Average ROB occupancy Load Stall End: 92.3088
Min ROB occupancy Load Stall Begin: 1
Max ROB occupancy Load Stall Begin: 352
Min ROB occupancy Load Stall End: 1
Max ROB occupancy Load Stall End: 352
Average ROB occupancy Critical Load Stall Begin: -nan
Average ROB occupancy Critical Load Stall End: -nan
Min ROB occupancy Critical Load Stall Begin: 400
Max ROB occupancy Critical Load Stall Begin: 0
Min ROB occupancy Critical Load Stall End: 400
Max ROB occupancy Critical Load Stall End: 0
 ROB Load Stall Begin Bucket Count 0: 1563967
 ROB Load Stall End Bucket Count 0: 1297110
 ROB Critical Load Stall Begin Bucket Count 0: 0
 ROB Critical Load Stall End Bucket Count 0: 0
 ROB Load Stall Begin Bucket Count 1: 600313
 ROB Load Stall End Bucket Count 1: 736499
 ROB Critical Load Stall Begin Bucket Count 1: 0
 ROB Critical Load Stall End Bucket Count 1: 0
 ROB Load Stall Begin Bucket Count 2: 375958
 ROB Load Stall End Bucket Count 2: 430939
 ROB Critical Load Stall Begin Bucket Count 2: 0
 ROB Critical Load Stall End Bucket Count 2: 0
 ROB Load Stall Begin Bucket Count 3: 209225
 ROB Load Stall End Bucket Count 3: 247802
 ROB Critical Load Stall Begin Bucket Count 3: 0
 ROB Critical Load Stall End Bucket Count 3: 0
 ROB Load Stall Begin Bucket Count 4: 95458
 ROB Load Stall End Bucket Count 4: 113986
 ROB Critical Load Stall Begin Bucket Count 4: 0
 ROB Critical Load Stall End Bucket Count 4: 0
 ROB Load Stall Begin Bucket Count 5: 51882
 ROB Load Stall End Bucket Count 5: 60258
 ROB Critical Load Stall Begin Bucket Count 5: 0
 ROB Critical Load Stall End Bucket Count 5: 0
 ROB Load Stall Begin Bucket Count 6: 148168
 ROB Load Stall End Bucket Count 6: 158377
 ROB Critical Load Stall Begin Bucket Count 6: 0
 ROB Critical Load Stall End Bucket Count 6: 0
PIST Tag Read Accesses: 2025980
PIST Read Accesses: 1012990
PIST Tag Write Accesses: 2025980
PIST Write Accesses: 1012990
Criticality detector called times: 2230426
Max global_stall_cycles_count: 5202234
Threshold Modified: 0 times, factor: 0
Sturdy critical IP cache stats: 
 Unused entries: 0
CIC Tag Read Accesses: 0
CIC Read Accesses: 0
CIC Tag Write Accesses: 0
CIC Write Accesses: 0
Wobbly critical IP cache stats: 
 Unused entries: 21
CIC Tag Read Accesses: 153247328
CIC Read Accesses: 0
CIC Tag Write Accesses: 210878
CIC Write Accesses: 0
ITLB TOTAL     ACCESS:    8232238  HIT:    8144362  MISS:      87876  HIT %:    98.9325  MISS %:    1.06746   MPKI: 1.75752
ITLB LOAD TRANSLATION ACCESS:    7755409  HIT:    7748933  MISS:       6476  HIT %:    99.9165  MISS %:   0.083503   MPKI: 0.12952
ITLB TRANSLATION FROM L1D PREFETCHER ACCESS:     476829  HIT:     395429  MISS:      81400  HIT %:    82.9289  MISS %:    17.0711   MPKI: 1.628
ITLB PREFETCH  REQUESTED:          0  ISSUED:          0  USEFUL:      60650  USELESS:      20745
ITLB USEFUL LOAD PREFETCHES:      60650 PREFETCH ISSUED TO LOWER LEVEL:          0  ACCURACY: inf
ITLB TIMELY PREFETCHES:      60650 LATE PREFETCHES: 28 DROPPED PREFETCHES: 2
ITLB PREFETCHES SAME FILL-ORIGIN LEVEL: 0 DIFFERENT FILL-ORIGIN LEVEL: 0
ITLB AVERAGE MISS LATENCY: 17344.2 cycles
ITLB RQ	ACCESS:   10773056	FORWARD:          0	MERGED:    2536738	TO_CACHE:    8236318

DTLB TOTAL     ACCESS:   11108190  HIT:   10845142  MISS:     263048  HIT %:    97.6319  MISS %:    2.36805   MPKI: 5.26096
DTLB LOAD TRANSLATION ACCESS:   11108190  HIT:   10845142  MISS:     263048  HIT %:    97.6319  MISS %:    2.36805   MPKI: 5.26096
DTLB PREFETCH  REQUESTED:          0  ISSUED:          0  USEFUL:          0  USELESS:          0
DTLB USEFUL LOAD PREFETCHES:          0 PREFETCH ISSUED TO LOWER LEVEL:          0  ACCURACY: -nan
DTLB TIMELY PREFETCHES:          0 LATE PREFETCHES: 0 DROPPED PREFETCHES: 0
DTLB PREFETCHES SAME FILL-ORIGIN LEVEL: 0 DIFFERENT FILL-ORIGIN LEVEL: 0
DTLB AVERAGE MISS LATENCY: 10.5919 cycles
DTLB RQ	ACCESS:   13242834	FORWARD:          0	MERGED:    2122754	TO_CACHE:   11120080

STLB TOTAL     ACCESS:     350924  HIT:     346807  MISS:       4117  HIT %:    98.8268  MISS %:    1.17319   MPKI: 0.08234
STLB LOAD TRANSLATION ACCESS:     269496  HIT:     265808  MISS:       3688  HIT %:    98.6315  MISS %:    1.36848   MPKI: 0.07376
STLB TRANSLATION FROM L1D PREFETCHER ACCESS:      81428  HIT:      80999  MISS:        429  HIT %:    99.4732  MISS %:   0.526846   MPKI: 0.00858
STLB PREFETCH  REQUESTED:          0  ISSUED:          0  USEFUL:        362  USELESS:         60
STLB USEFUL LOAD PREFETCHES:        362 PREFETCH ISSUED TO LOWER LEVEL:          0  ACCURACY: inf
STLB TIMELY PREFETCHES:        362 LATE PREFETCHES: 0 DROPPED PREFETCHES: 2
STLB PREFETCHES SAME FILL-ORIGIN LEVEL: 0 DIFFERENT FILL-ORIGIN LEVEL: 0
STLB AVERAGE MISS LATENCY: 132.706 cycles
STLB RQ	ACCESS:     350926	FORWARD:          0	MERGED:          0	TO_CACHE:     350926

STLB Hit, L1D data hit: 0
STLB Hit, L2C data hit: 0
STLB Hit, LLC data hit: 0
STLB Hit, LLC data miss: 0
STLB STLB hints to L2: 0
L1D TOTAL     ACCESS:   13085089  HIT:   12670686  MISS:     414403  HIT %:     96.833  MISS %:    3.16699   MPKI: 8.28806
L1D LOAD      ACCESS:    9060012  HIT:    8705386  MISS:     354626  HIT %:    96.0858  MISS %:    3.91419   MPKI: 7.09252
L1D RFO       ACCESS:    4025077  HIT:    3965300  MISS:      59777  HIT %:    98.5149  MISS %:    1.48511   MPKI: 1.19554
L1D PREFETCH  REQUESTED:          0  ISSUED:          0  USEFUL:          0  USELESS:          0
L1D USEFUL LOAD PREFETCHES:          0 PREFETCH ISSUED TO LOWER LEVEL:          0  ACCURACY: -nan
L1D TIMELY PREFETCHES:          0 LATE PREFETCHES: 0 DROPPED PREFETCHES: 0
L1D PREFETCHES SAME FILL-ORIGIN LEVEL: 0 DIFFERENT FILL-ORIGIN LEVEL: 0
L1D AVERAGE MISS LATENCY: 81.2033 cycles
L1D RQ	ACCESS:   13263141	FORWARD:          0	MERGED:    4085544	TO_CACHE:    9117148
L1D WQ	ACCESS:    4203142	FORWARD:      60449	MERGED:      77456	TO_CACHE:    4125686

L1D UNIQUE REGIONS ACCESSED: 0
L1D REGIONS CONFLICTS: 0
L1D Cross Page Prefetch Requests: 0
L1D Same Page Prefetch Requests: 0
L1D ROI Sum of L1D PQ occupancy: 0
L1D PREFETCHES PUSHED FROM L2C: 0
L1I TOTAL     ACCESS:   10764301  HIT:   10316072  MISS:     448229  HIT %:     95.836  MISS %:    4.16403   MPKI: 8.96458
L1I LOAD      ACCESS:    9466805  HIT:    9454231  MISS:      12574  HIT %:    99.8672  MISS %:   0.132822   MPKI: 0.25148
L1I PREFETCH  ACCESS:    1297496  HIT:     861841  MISS:     435655  HIT %:    66.4234  MISS %:    33.5766   MPKI: 8.7131
L1I PREFETCH  REQUESTED:    1323810  ISSUED:    1322012  USEFUL:     310577  USELESS:     125059
L1I USEFUL LOAD PREFETCHES:     310577 PREFETCH ISSUED TO LOWER LEVEL:     438411  ACCURACY: 70.8415
L1I TIMELY PREFETCHES:     310577 LATE PREFETCHES: 2756 DROPPED PREFETCHES: 2
L1I PREFETCHES SAME FILL-ORIGIN LEVEL: 438411 DIFFERENT FILL-ORIGIN LEVEL: 0
L1I AVERAGE MISS LATENCY: 314810 cycles
L1I RQ	ACCESS:   13831706	FORWARD:          0	MERGED:    4362311	TO_CACHE:    9469395
L1I PQ	ACCESS:    1322012	FORWARD:          0	MERGED:      18351	TO_CACHE:    1303661

BTB TOTAL     ACCESS:    6247434  HIT:    5990703  MISS:     256731  HIT %:    95.8906  MISS %:    4.10938   MPKI: 5.13462
BTB BRANCH_DIRECT_JUMP	ACCESS:     455615  HIT:     454212  MISS:       1403
BTB BRANCH_INDIRECT	ACCESS:      20390  HIT:      13969  MISS:       6421
BTB BRANCH_CONDITIONAL	ACCESS:    4324523  HIT:    4321097  MISS:       3426
BTB BRANCH_DIRECT_CALL	ACCESS:     494532  HIT:     492733  MISS:       1799
BTB BRANCH_INDIRECT_CALL	ACCESS:     228815  HIT:     173167  MISS:      55648
BTB BRANCH_RETURN	ACCESS:     723559  HIT:     535525  MISS:     188034
BTB BRANCH_OTHER ACCESS:          0  HIT:          0  MISS:          0

L2C TOTAL     ACCESS:    1129580  HIT:     876576  MISS:     253004  HIT %:    77.6019  MISS %:    22.3981   MPKI: 5.06008
L2C LOAD      ACCESS:     364438  HIT:     174206  MISS:     190232  HIT %:    47.8013  MISS %:    52.1987   MPKI: 3.80464
L2C DATA LOAD MPKI: 3.74084
L2C INSTRUCTION LOAD MPKI: 0.0638
L2C RFO       ACCESS:      59777  HIT:      18350  MISS:      41427  HIT %:    30.6974  MISS %:    69.3026   MPKI: 0.82854
L2C PREFETCH  ACCESS:     549332  HIT:     531853  MISS:      17479  HIT %:    96.8181  MISS %:    3.18186   MPKI: 0.34958
L2C DATA PREFETCH MPKI: 0.04
L2C INSTRUCTION PREFETCH MPKI: 0.30958
L2C WRITEBACK ACCESS:     151655  HIT:     149587  MISS:       2068  HIT %:    98.6364  MISS %:    1.36362   MPKI: 0.04136
L2C LOAD TRANSLATION ACCESS:       3892  HIT:       2390  MISS:       1502  HIT %:     61.408  MISS %:     38.592   MPKI: 0.03004
L2C TRANSLATION FROM L1D PREFETCHER ACCESS:        486  HIT:        190  MISS:        296  HIT %:    39.0947  MISS %:    60.9053   MPKI: 0.00592
L2C PREFETCH  REQUESTED:     295759  ISSUED:     295752  USEFUL:       2684  USELESS:      13607
L2C USEFUL LOAD PREFETCHES:       2684 PREFETCH ISSUED TO LOWER LEVEL:      89384  ACCURACY: 3.00277
L2C TIMELY PREFETCHES:       2684 LATE PREFETCHES: 277 DROPPED PREFETCHES: 0
L2C PREFETCHES SAME FILL-ORIGIN LEVEL: 2278 DIFFERENT FILL-ORIGIN LEVEL: 71628
L2C AVERAGE MISS LATENCY: 118.99 cycles
L2C RQ	ACCESS:     428598	FORWARD:          0	MERGED:          0	TO_CACHE:     428593
L2C WQ	ACCESS:     151655	FORWARD:          5	MERGED:          0	TO_CACHE:     151655
L2C PQ	ACCESS:     734163	FORWARD:          0	MERGED:     111072	TO_CACHE:     623091

L2C Instructions Evicting Data 16430
L2C Translations Evicting Data 1555
L2C Data Evicting Data 214501
L2C Instructions Evicting Instructions 2050
L2C Translations Evicting Instructions 223
L2C Data Evicting Instructions 14520
L2C Instructions Evicting Translations 189
L2C Translations Evicting Translations 20
L2C Data Evicting Translations 1448
L2C Dense regions hint from L2: 0
PSCL5 TOTAL     ACCESS:       4119  HIT:       4119  MISS:          0  HIT %:        100  MISS %:          0   MPKI: 0
PSCL5 LOAD TRANSLATION ACCESS:       3688  HIT:       3688  MISS:          0  HIT %:        100  MISS %:          0   MPKI: 0
PSCL5 TRANSLATION FROM L1D PREFETCHER ACCESS:        431  HIT:        431  MISS:          0  HIT %:        100  MISS %:          0   MPKI: 0
PSCL5 PREFETCH  REQUESTED:          0  ISSUED:          0  USEFUL:          0  USELESS:          0
PSCL5 USEFUL LOAD PREFETCHES:          0 PREFETCH ISSUED TO LOWER LEVEL:          0  ACCURACY: -nan
PSCL5 TIMELY PREFETCHES:          0 LATE PREFETCHES: 0 DROPPED PREFETCHES: 0
PSCL5 PREFETCHES SAME FILL-ORIGIN LEVEL: 0 DIFFERENT FILL-ORIGIN LEVEL: 0

PSCL4 TOTAL     ACCESS:       4051  HIT:       4047  MISS:          4  HIT %:    99.9013  MISS %:  0.0987411   MPKI: 8e-05
PSCL4 LOAD TRANSLATION ACCESS:       3627  HIT:       3623  MISS:          4  HIT %:    99.8897  MISS %:   0.110284   MPKI: 8e-05
PSCL4 TRANSLATION FROM L1D PREFETCHER ACCESS:        424  HIT:        424  MISS:          0  HIT %:        100  MISS %:          0   MPKI: 0
PSCL4 PREFETCH  REQUESTED:          0  ISSUED:          0  USEFUL:          0  USELESS:          0
PSCL4 USEFUL LOAD PREFETCHES:          0 PREFETCH ISSUED TO LOWER LEVEL:          0  ACCURACY: -nan
PSCL4 TIMELY PREFETCHES:          0 LATE PREFETCHES: 0 DROPPED PREFETCHES: 0
PSCL4 PREFETCHES SAME FILL-ORIGIN LEVEL: 0 DIFFERENT FILL-ORIGIN LEVEL: 0

PSCL3 TOTAL     ACCESS:       4050  HIT:       4039  MISS:         11  HIT %:    99.7284  MISS %:   0.271605   MPKI: 0.00022
PSCL3 LOAD TRANSLATION ACCESS:       3625  HIT:       3614  MISS:         11  HIT %:    99.6966  MISS %:   0.303448   MPKI: 0.00022
PSCL3 TRANSLATION FROM L1D PREFETCHER ACCESS:        425  HIT:        425  MISS:          0  HIT %:        100  MISS %:          0   MPKI: 0
PSCL3 PREFETCH  REQUESTED:          0  ISSUED:          0  USEFUL:          0  USELESS:          0
PSCL3 USEFUL LOAD PREFETCHES:          0 PREFETCH ISSUED TO LOWER LEVEL:          0  ACCURACY: -nan
PSCL3 TIMELY PREFETCHES:          0 LATE PREFETCHES: 0 DROPPED PREFETCHES: 0
PSCL3 PREFETCHES SAME FILL-ORIGIN LEVEL: 0 DIFFERENT FILL-ORIGIN LEVEL: 0

PSCL2 TOTAL     ACCESS:       4119  HIT:       3870  MISS:        249  HIT %:    93.9548  MISS %:    6.04516   MPKI: 0.00498
PSCL2 LOAD TRANSLATION ACCESS:       3739  HIT:       3490  MISS:        249  HIT %:    93.3405  MISS %:    6.65953   MPKI: 0.00498
PSCL2 TRANSLATION FROM L1D PREFETCHER ACCESS:        380  HIT:        380  MISS:          0  HIT %:        100  MISS %:          0   MPKI: 0
PSCL2 PREFETCH  REQUESTED:          0  ISSUED:          0  USEFUL:          0  USELESS:          0
PSCL2 USEFUL LOAD PREFETCHES:          0 PREFETCH ISSUED TO LOWER LEVEL:          0  ACCURACY: -nan
PSCL2 TIMELY PREFETCHES:          0 LATE PREFETCHES: 0 DROPPED PREFETCHES: 0
PSCL2 PREFETCHES SAME FILL-ORIGIN LEVEL: 0 DIFFERENT FILL-ORIGIN LEVEL: 0

LLC TOTAL     ACCESS:     417566  HIT:     268248  MISS:     149318  HIT %:    64.2409  MISS %:    35.7591   MPKI: 2.98636
LLC LOAD      ACCESS:     189957  HIT:     101799  MISS:      88158  HIT %:    53.5905  MISS %:    46.4095   MPKI: 1.76316
LLC RFO       ACCESS:      41425  HIT:       6042  MISS:      35383  HIT %:    14.5854  MISS %:    85.4146   MPKI: 0.70766
LLC PREFETCH  ACCESS:      87506  HIT:      70404  MISS:      17102  HIT %:    80.4562  MISS %:    19.5438   MPKI: 0.34204
LLC WRITEBACK ACCESS:      96880  HIT:      89518  MISS:       7362  HIT %:    92.4009  MISS %:    7.59909   MPKI: 0.14724
LLC LOAD TRANSLATION ACCESS:       1502  HIT:        421  MISS:       1081  HIT %:    28.0293  MISS %:    71.9707   MPKI: 0.02162
LLC TRANSLATION FROM L1D PREFETCHER ACCESS:        296  HIT:         64  MISS:        232  HIT %:    21.6216  MISS %:    78.3784   MPKI: 0.00464
LLC PREFETCH  REQUESTED:          0  ISSUED:          0  USEFUL:       5243  USELESS:      10759
LLC USEFUL LOAD PREFETCHES:       5243 PREFETCH ISSUED TO LOWER LEVEL:      17909  ACCURACY: 29.2758
LLC TIMELY PREFETCHES:       5243 LATE PREFETCHES: 807 DROPPED PREFETCHES: 0
LLC PREFETCHES SAME FILL-ORIGIN LEVEL: 10685 DIFFERENT FILL-ORIGIN LEVEL: 0
LLC AVERAGE MISS LATENCY: 161.53 cycles
LLC RQ	ACCESS:     233180	FORWARD:          0	MERGED:          0	TO_CACHE:     233180
LLC WQ	ACCESS:      96879	FORWARD:          0	MERGED:          0	TO_CACHE:      96879
LLC PQ	ACCESS:      89384	FORWARD:          0	MERGED:        302	TO_CACHE:      89082

LLC Dense regions hint to LLC: 0

RAW hits: 958863
Loads Generated: 14222005
Loads sent to L1D: 13263141
Stores Generated: 4203141
Stores sent to L1D: 4203142
Major fault: 0 Minor fault: 3508
Allocated PAGES: 3508
I-Shadow cache 408 bytes
Touched + WorthPF tables 6144 bytes 
MMA filter 174 bytes 
FNL filter 272 bytes 
TOTAL PREFETCHER STORAGE SIZE: 25174 bytes
CPU 0 L1I next line prefetcher final stats
 All Calls: 1867902
 Critical Calls: 324981
------------------
Depth Distribution
------------------
depth 0: 0
depth 1: 259452
depth 2: 102881
depth 3: 25613
depth 4: 9451
depth 5: 5318
depth 6: 3834
depth 7: 2918
depth 8: 2266
depth 9: 1669
depth 10: 1256
depth 11: 902
depth 12: 608
depth 13: 319
depth 14: 58
depth 15: 57
depth 16: 0
depth 17: 0
depth 18: 0
depth 19: 0
depth 20: 0
depth 21: 0
depth 22: 0
depth 23: 0
depth 24: 0
depth 25: 0
depth 26: 0
depth 27: 0
depth 28: 0
depth 29: 0
Total: 416602
-----------------------------
-----------------------------
	Captured at Filter
-----------------------------
depth 0: 0
depth 1: 41616
depth 2: 27818
depth 3: 12593
depth 4: 4639
depth 5: 1368
depth 6: 25
depth 7: 21
depth 8: 16
depth 9: 12
depth 10: 14
depth 11: 10
depth 12: 5
depth 13: 3
depth 14: 1
depth 15: 0
depth 16: 0
depth 17: 0
depth 18: 0
depth 19: 0
depth 20: 0
depth 21: 0
depth 22: 0
depth 23: 0
depth 24: 0
depth 25: 0
depth 26: 0
depth 27: 0
depth 28: 0
depth 29: 0
-----------------------------
-----------------------------
		Lost at Page
-----------------------------
depth 0: 0
depth 1: 9181
depth 2: 2732
depth 3: 696
depth 4: 479
depth 5: 463
depth 6: 394
depth 7: 344
depth 8: 323
depth 9: 294
depth 10: 254
depth 11: 206
depth 12: 155
depth 13: 84
depth 14: 16
depth 15: 18
depth 16: 0
depth 17: 0
depth 18: 0
depth 19: 0
depth 20: 0
depth 21: 0
depth 22: 0
depth 23: 0
depth 24: 0
depth 25: 0
depth 26: 0
depth 27: 0
depth 28: 0
depth 29: 0
-----------------------------
-----------------------------
	Lost due to PQ Size
-----------------------------
7
-----------------------------
ST read accesses: 214214
ST write accesses: 3171
PT read accesses: 3330488
PT write accesses: 293757
FILTER read accesses: 823264
FILTER write accesses: 275860
GHR read accesses: 106947
GHR write accesses: 13220
GHR counter read accesses: 2706466
GHR counter write accesses: 240438
ST tag read accesses: 86162057
ST tag write accesses: 6676171

DRAM Statistics
 CHANNEL 0
 RQ ROW_BUFFER_HIT:      34114  ROW_BUFFER_MISS:     107841
 DBUS_CONGESTED:         46
 WQ ROW_BUFFER_HIT:      12484  ROW_BUFFER_MISS:      64826  FULL:          0

 AVG_CONGESTED_CYCLE: 5
 All warmup complete: 2
Channel 0 Bank busy for read cycles: 0
Channel 0 Bank busy for write cycles: 0
Channel 0
Rank 0
0banks busy for read cycles: 54635307
0banks busy for write cycles: 31633
1banks busy for read cycles: 8329647
1banks busy for write cycles: 4404106
2banks busy for read cycles: 2099384
2banks busy for write cycles: 1449258
3banks busy for read cycles: 669609
3banks busy for write cycles: 573515
4banks busy for read cycles: 227040
4banks busy for write cycles: 266117
5banks busy for read cycles: 129930
5banks busy for write cycles: 146579
6banks busy for read cycles: 88475
6banks busy for write cycles: 100165
7banks busy for read cycles: 69480
7banks busy for write cycles: 94945
8banks busy for read cycles: 108125
8banks busy for write cycles: 341393

CPU 0 Branch Prediction Accuracy: 97.9037% MPKI: 3.63418 Average ROB Occupancy at Mispredict: 64.492
Branch types
NOT_BRANCH: 41331374 82.6627%
BRANCH_DIRECT_JUMP: 455615 0.91123%
BRANCH_INDIRECT: 20390 0.04078%
BRANCH_CONDITIONAL: 6745373 13.4907%
BRANCH_DIRECT_CALL: 494532 0.989064%
BRANCH_INDIRECT_CALL: 228815 0.45763%
BRANCH_RETURN: 723559 1.44712%
BRANCH_OTHER: 0 0%

DRAM PAGES: 1048576
Allocated PAGES: 3508
