
*** ChampSim Multicore Out-of-Order Simulator ***

Warmup Instructions: 50000000
Simulation Instructions: 50000000
Number of CPUs: 1
LLC sets: 2048
LLC ways: 16
Off-chip DRAM Size: 4096 MB Channels: 1 Width: 64-bit Data Rate: 6400 MT/s
CPU 0 runs ../IPC-traces//client_007.champsimtrace.xz
.xz
NUM_OF_IPS_IN_CRITICAL_IP_TRAINING: 64
NUM_OF_CRITICAL_IP_TRAINING_TABLE_WAYS: 2
NUM_OF_CRITICAL_IP_TRAINING_TABLE_SETS: 32
WOBBLY_CRITICAL_IP_CACHE_SETS: 32
WOBBLY_CRITICAL_IP_CACHE_WAYS: 4
BTB has LRU replacement policy
ITLB has LRU replacement policy
DTLB has LRU replacement policy
STLB has LRU replacement policy
CPU 0 L1I next line prefetcher
L1I has LRU replacement policy
IP Table Entries: 64
L1D has LRU replacement policy
Initialize SRRIP state for L2C
Initialize DRRIP state for LLC
Heartbeat CPU 0 instructions: 10000003 cycles: 3033815 heartbeat IPC: 3.29618 cumulative IPC: 3.29618 (Simulation time: 0 hr 2 min 2 sec) 
Heartbeat CPU 0 instructions: 20000003 cycles: 5975475 heartbeat IPC: 3.39944 cumulative IPC: 3.34701 (Simulation time: 0 hr 3 min 58 sec) 
Heartbeat CPU 0 instructions: 30000000 cycles: 9156563 heartbeat IPC: 3.14358 cumulative IPC: 3.27634 (Simulation time: 0 hr 6 min 16 sec) 
Heartbeat CPU 0 instructions: 40000003 cycles: 12444236 heartbeat IPC: 3.04167 cumulative IPC: 3.21434 (Simulation time: 0 hr 8 min 24 sec) 
Heartbeat CPU 0 instructions: 50000001 cycles: 15345413 heartbeat IPC: 3.44688 cumulative IPC: 3.2583 (Simulation time: 0 hr 10 min 26 sec) 

Warmup complete CPU 0 instructions: 50000001 cycles: 15345413 (Simulation time: 0 hr 10 min 26 sec) 

% increase in all ip prefetch 265.372
% increase in all ip prefetch 0.496657
Heartbeat CPU 0 instructions: 60000003 cycles: 28429196 heartbeat IPC: 0.764305 cumulative IPC: 0.764305 (Simulation time: 0 hr 13 min 0 sec) 
Heartbeat CPU 0 instructions: 70000003 cycles: 45141768 heartbeat IPC: 0.598352 cumulative IPC: 0.671223 (Simulation time: 0 hr 16 min 0 sec) 
Heartbeat CPU 0 instructions: 80000001 cycles: 55474447 heartbeat IPC: 0.967803 cumulative IPC: 0.747588 (Simulation time: 0 hr 18 min 25 sec) 
Heartbeat CPU 0 instructions: 90000001 cycles: 69682901 heartbeat IPC: 0.703806 cumulative IPC: 0.73614 (Simulation time: 0 hr 20 min 57 sec) 
Heartbeat CPU 0 instructions: 100000000 cycles: 85901485 heartbeat IPC: 0.616577 cumulative IPC: 0.708656 (Simulation time: 0 hr 24 min 5 sec) 
Finished CPU 0 instructions: 50000001 cycles: 70556073 cumulative IPC: 0.708656 (Simulation time: 0 hr 24 min 5 sec) 

ChampSim completed all CPUs

Region of Interest Statistics

CPU 0 cumulative IPC: 0.708656 instructions: 50000001 cycles: 70556073

CPU 0 Average Load ROB stall cycles: 1.86374e+07
CPU 0 Fraction of times ROB stalled by Loads: 39.0057
CPU 0 Percentage of Load stall cycles in Total stall cycles: 2.39025e+08
Issued all: 30304210
Issued LT all: 24879614
rob_not_full_when_issued_lt_all: 18652450
Issued LT one: 19171009
rob_not_full_when_issued_lt_one: 14290519
critical_ip_candidate_identification_operations: 5809548
critical_ip_candidate_identification_operation_per_cycle: 0.0823395
 Total stall cycles: 58066507
 Total load stall cycles: 138793613962495
Unique Load IPs: 16511
CPU 0 NUM of IPS identified critical: 148
CPU 0 Num of Load IPs stalling ROB: 12209
Threshold modification factor: -1
Max PIST entries: 64
Min PIST entries: 0
Avg PIST entries: 30.26
Trouble in retire width: 0.906789
MaC = Marked as critical.
lt_50_percent_before_Mac: 104
gt_90_percent_before_Mac: 11
gt_75_percent_before_Mac: 9
gt_50_percent_before_Mac: 23
stall_proportion_bin_same_before_after: 0
stall_proportion_bin_lower_before_after: 0
stall_proportion_bin_upper_before_after: 0
average_stall_proportion_before: 0.0594027
average_stall_proportion_after: 0.0654772
Critical IP stalls, total frequency: 1205567
Non-critical IP stalls, total frequency: 1699207
Total Freq all stalling IPs: 2904774
Critical_IP_Detector_Accuracy_70: 0.695946
Critical_IP_Detector_Accuracy_80: 0.783784
Critical_IP_Detector_Accuracy_90: 0.939189
Critical_IP_Detector_Coverage_70: 0.26615
Critical_IP_Detector_Coverage_80: 0.161111
Critical_IP_Detector_Coverage_90: 0.102056
stat_90_percent_critical_ip_stalls_freq: 2614480
stat_90_percent_non_critical_ip_stalls_freq: 290294
AVERAGE_ROB_Occupancy_90_Percent_Critical_IP_Stalls: 113.589
AVERAGE_ROB_Occupancy_90_Percent_Non_Critical_IP_Stalls: 63.8734
Critical_IP_ROB_Stalls_Bucket_0: 163839
Non-critical_IP_ROB_Stalls_Bucket_0: 909458
Critical_IP_ROB_Stalls_Bucket_1: 250478
Non-critical_IP_ROB_Stalls_Bucket_1: 541543
Critical_IP_ROB_Stalls_Bucket_2: 239236
Non-critical_IP_ROB_Stalls_Bucket_2: 142451
Critical_IP_ROB_Stalls_Bucket_3: 146658
Non-critical_IP_ROB_Stalls_Bucket_3: 46030
Critical_IP_ROB_Stalls_Bucket_4: 59683
Non-critical_IP_ROB_Stalls_Bucket_4: 22129
Critical_IP_ROB_Stalls_Bucket_5: 36554
Non-critical_IP_ROB_Stalls_Bucket_5: 11928
Critical_IP_ROB_Stalls_Bucket_6: 309119
Non-critical_IP_ROB_Stalls_Bucket_6: 25668
0 => IPs accounting for >50 percent of stalls, 1 => 55, 2 => 60, 3 => 65 and so on till 90.
percent50: 50.0945 num IPs:  117
percent55: 55.0545 num IPs: 159
percent60: 60.0641 num IPs: 215
percent65: 65.0204 num IPs: 287
percent70: 70.0227 num IPs: 387
percent75: 75.0102 num IPs: 525
percent80: 80.019 num IPs: 720
percent85: 85.0015 num IPs: 970
percent90: 90.0062 num IPs: 1362
Critical_ROB_Stalls_Percent_0_Bucket_0: 343805
Non-critical_ROB_Stalls_Percent_0_Bucket_0: 729492
Critical_ROB_Stalls_Percent_0_Bucket_1: 332874
Non-critical_ROB_Stalls_Percent_0_Bucket_1: 459147
Critical_ROB_Stalls_Percent_0_Bucket_2: 248485
Non-critical_ROB_Stalls_Percent_0_Bucket_2: 133202
Critical_ROB_Stalls_Percent_0_Bucket_3: 144705
Non-critical_ROB_Stalls_Percent_0_Bucket_3: 47983
Critical_ROB_Stalls_Percent_0_Bucket_4: 56507
Non-critical_ROB_Stalls_Percent_0_Bucket_4: 25305
Critical_ROB_Stalls_Percent_0_Bucket_5: 34324
Non-critical_ROB_Stalls_Percent_0_Bucket_5: 14158
Critical_ROB_Stalls_Percent_0_Bucket_6: 294433
Non-critical_ROB_Stalls_Percent_0_Bucket_6: 40354
Critical_ROB_Stalls_Percent_1_Bucket_0: 407875
Non-critical_ROB_Stalls_Percent_1_Bucket_0: 665422
Critical_ROB_Stalls_Percent_1_Bucket_1: 387754
Non-critical_ROB_Stalls_Percent_1_Bucket_1: 404267
Critical_ROB_Stalls_Percent_1_Bucket_2: 261653
Non-critical_ROB_Stalls_Percent_1_Bucket_2: 120034
Critical_ROB_Stalls_Percent_1_Bucket_3: 149642
Non-critical_ROB_Stalls_Percent_1_Bucket_3: 43046
Critical_ROB_Stalls_Percent_1_Bucket_4: 58618
Non-critical_ROB_Stalls_Percent_1_Bucket_4: 23194
Critical_ROB_Stalls_Percent_1_Bucket_5: 35900
Non-critical_ROB_Stalls_Percent_1_Bucket_5: 12582
Critical_ROB_Stalls_Percent_1_Bucket_6: 297767
Non-critical_ROB_Stalls_Percent_1_Bucket_6: 37020
Critical_ROB_Stalls_Percent_2_Bucket_0: 476970
Non-critical_ROB_Stalls_Percent_2_Bucket_0: 596327
Critical_ROB_Stalls_Percent_2_Bucket_1: 438582
Non-critical_ROB_Stalls_Percent_2_Bucket_1: 353439
Critical_ROB_Stalls_Percent_2_Bucket_2: 274035
Non-critical_ROB_Stalls_Percent_2_Bucket_2: 107652
Critical_ROB_Stalls_Percent_2_Bucket_3: 155193
Non-critical_ROB_Stalls_Percent_2_Bucket_3: 37495
Critical_ROB_Stalls_Percent_2_Bucket_4: 61111
Non-critical_ROB_Stalls_Percent_2_Bucket_4: 20701
Critical_ROB_Stalls_Percent_2_Bucket_5: 36869
Non-critical_ROB_Stalls_Percent_2_Bucket_5: 11613
Critical_ROB_Stalls_Percent_2_Bucket_6: 301967
Non-critical_ROB_Stalls_Percent_2_Bucket_6: 32820
Critical_ROB_Stalls_Percent_3_Bucket_0: 537514
Non-critical_ROB_Stalls_Percent_3_Bucket_0: 535783
Critical_ROB_Stalls_Percent_3_Bucket_1: 491301
Non-critical_ROB_Stalls_Percent_3_Bucket_1: 300720
Critical_ROB_Stalls_Percent_3_Bucket_2: 292066
Non-critical_ROB_Stalls_Percent_3_Bucket_2: 89621
Critical_ROB_Stalls_Percent_3_Bucket_3: 160244
Non-critical_ROB_Stalls_Percent_3_Bucket_3: 32444
Critical_ROB_Stalls_Percent_3_Bucket_4: 64094
Non-critical_ROB_Stalls_Percent_3_Bucket_4: 17718
Critical_ROB_Stalls_Percent_3_Bucket_5: 38228
Non-critical_ROB_Stalls_Percent_3_Bucket_5: 10254
Critical_ROB_Stalls_Percent_3_Bucket_6: 305248
Non-critical_ROB_Stalls_Percent_3_Bucket_6: 29539
Critical_ROB_Stalls_Percent_4_Bucket_0: 599681
Non-critical_ROB_Stalls_Percent_4_Bucket_0: 473616
Critical_ROB_Stalls_Percent_4_Bucket_1: 539699
Non-critical_ROB_Stalls_Percent_4_Bucket_1: 252322
Critical_ROB_Stalls_Percent_4_Bucket_2: 306603
Non-critical_ROB_Stalls_Percent_4_Bucket_2: 75084
Critical_ROB_Stalls_Percent_4_Bucket_3: 165853
Non-critical_ROB_Stalls_Percent_4_Bucket_3: 26835
Critical_ROB_Stalls_Percent_4_Bucket_4: 68264
Non-critical_ROB_Stalls_Percent_4_Bucket_4: 13548
Critical_ROB_Stalls_Percent_4_Bucket_5: 40932
Non-critical_ROB_Stalls_Percent_4_Bucket_5: 7550
Critical_ROB_Stalls_Percent_4_Bucket_6: 312967
Non-critical_ROB_Stalls_Percent_4_Bucket_6: 21820
Critical_ROB_Stalls_Percent_5_Bucket_0: 677538
Non-critical_ROB_Stalls_Percent_5_Bucket_0: 395759
Critical_ROB_Stalls_Percent_5_Bucket_1: 583735
Non-critical_ROB_Stalls_Percent_5_Bucket_1: 208286
Critical_ROB_Stalls_Percent_5_Bucket_2: 318916
Non-critical_ROB_Stalls_Percent_5_Bucket_2: 62771
Critical_ROB_Stalls_Percent_5_Bucket_3: 169870
Non-critical_ROB_Stalls_Percent_5_Bucket_3: 22818
Critical_ROB_Stalls_Percent_5_Bucket_4: 71559
Non-critical_ROB_Stalls_Percent_5_Bucket_4: 10253
Critical_ROB_Stalls_Percent_5_Bucket_5: 42612
Non-critical_ROB_Stalls_Percent_5_Bucket_5: 5870
Critical_ROB_Stalls_Percent_5_Bucket_6: 314645
Non-critical_ROB_Stalls_Percent_5_Bucket_6: 20142
Critical_ROB_Stalls_Percent_6_Bucket_0: 748397
Non-critical_ROB_Stalls_Percent_6_Bucket_0: 324900
Critical_ROB_Stalls_Percent_6_Bucket_1: 633704
Non-critical_ROB_Stalls_Percent_6_Bucket_1: 158317
Critical_ROB_Stalls_Percent_6_Bucket_2: 331148
Non-critical_ROB_Stalls_Percent_6_Bucket_2: 50539
Critical_ROB_Stalls_Percent_6_Bucket_3: 174245
Non-critical_ROB_Stalls_Percent_6_Bucket_3: 18443
Critical_ROB_Stalls_Percent_6_Bucket_4: 73617
Non-critical_ROB_Stalls_Percent_6_Bucket_4: 8195
Critical_ROB_Stalls_Percent_6_Bucket_5: 43772
Non-critical_ROB_Stalls_Percent_6_Bucket_5: 4710
Critical_ROB_Stalls_Percent_6_Bucket_6: 319489
Non-critical_ROB_Stalls_Percent_6_Bucket_6: 15298
Critical_ROB_Stalls_Percent_7_Bucket_0: 834572
Non-critical_ROB_Stalls_Percent_7_Bucket_0: 238725
Critical_ROB_Stalls_Percent_7_Bucket_1: 670558
Non-critical_ROB_Stalls_Percent_7_Bucket_1: 121463
Critical_ROB_Stalls_Percent_7_Bucket_2: 341301
Non-critical_ROB_Stalls_Percent_7_Bucket_2: 40386
Critical_ROB_Stalls_Percent_7_Bucket_3: 178271
Non-critical_ROB_Stalls_Percent_7_Bucket_3: 14417
Critical_ROB_Stalls_Percent_7_Bucket_4: 75702
Non-critical_ROB_Stalls_Percent_7_Bucket_4: 6110
Critical_ROB_Stalls_Percent_7_Bucket_5: 44932
Non-critical_ROB_Stalls_Percent_7_Bucket_5: 3550
Critical_ROB_Stalls_Percent_7_Bucket_6: 323767
Non-critical_ROB_Stalls_Percent_7_Bucket_6: 11020
Critical_ROB_Stalls_Percent_8_Bucket_0: 910073
Non-critical_ROB_Stalls_Percent_8_Bucket_0: 163224
Critical_ROB_Stalls_Percent_8_Bucket_1: 712011
Non-critical_ROB_Stalls_Percent_8_Bucket_1: 80010
Critical_ROB_Stalls_Percent_8_Bucket_2: 356868
Non-critical_ROB_Stalls_Percent_8_Bucket_2: 24819
Critical_ROB_Stalls_Percent_8_Bucket_3: 183827
Non-critical_ROB_Stalls_Percent_8_Bucket_3: 8861
Critical_ROB_Stalls_Percent_8_Bucket_4: 78163
Non-critical_ROB_Stalls_Percent_8_Bucket_4: 3649
Critical_ROB_Stalls_Percent_8_Bucket_5: 46207
Non-critical_ROB_Stalls_Percent_8_Bucket_5: 2275
Critical_ROB_Stalls_Percent_8_Bucket_6: 327331
Non-critical_ROB_Stalls_Percent_8_Bucket_6: 7456
Average ROB occupancy Load Stall Begin: 99.5371
Average ROB occupancy Load Stall End: 108.621
Min ROB occupancy Load Stall Begin: 1
Max ROB occupancy Load Stall Begin: 352
Min ROB occupancy Load Stall End: 1
Max ROB occupancy Load Stall End: 352
Average ROB occupancy Critical Load Stall Begin: 178.151
Average ROB occupancy Critical Load Stall End: 186.435
Min ROB occupancy Critical Load Stall Begin: 1
Max ROB occupancy Critical Load Stall Begin: 352
Min ROB occupancy Critical Load Stall End: 1
Max ROB occupancy Critical Load Stall End: 352
 ROB Load Stall Begin Bucket Count 0: 1334013
 ROB Load Stall End Bucket Count 0: 1073297
 ROB Critical Load Stall Begin Bucket Count 0: 177693
 ROB Critical Load Stall End Bucket Count 0: 115454
 ROB Load Stall Begin Bucket Count 1: 640421
 ROB Load Stall End Bucket Count 1: 792021
 ROB Critical Load Stall Begin Bucket Count 1: 173880
 ROB Critical Load Stall End Bucket Count 1: 190832
 ROB Load Stall Begin Bucket Count 2: 330434
 ROB Load Stall End Bucket Count 2: 381687
 ROB Critical Load Stall Begin Bucket Count 2: 191559
 ROB Critical Load Stall End Bucket Count 2: 204015
 ROB Load Stall Begin Bucket Count 3: 160930
 ROB Load Stall End Bucket Count 3: 192688
 ROB Critical Load Stall Begin Bucket Count 3: 114071
 ROB Critical Load Stall End Bucket Count 3: 132244
 ROB Load Stall Begin Bucket Count 4: 70169
 ROB Load Stall End Bucket Count 4: 81812
 ROB Critical Load Stall Begin Bucket Count 4: 45612
 ROB Critical Load Stall End Bucket Count 4: 51475
 ROB Load Stall Begin Bucket Count 5: 42871
 ROB Load Stall End Bucket Count 5: 48482
 ROB Critical Load Stall Begin Bucket Count 5: 28649
 ROB Critical Load Stall End Bucket Count 5: 32447
 ROB Load Stall Begin Bucket Count 6: 325936
 ROB Load Stall End Bucket Count 6: 334787
 ROB Critical Load Stall Begin Bucket Count 6: 297841
 ROB Critical Load Stall End Bucket Count 6: 302838
PIST Tag Read Accesses: 2187858
PIST Read Accesses: 1093929
PIST Tag Write Accesses: 2187858
PIST Write Accesses: 1093929
Criticality detector called times: 1878665
Max global_stall_cycles_count: 4377329
Threshold Modified: 1 times, factor: -1
Sturdy critical IP cache stats: 
 Unused entries: 0
CIC Tag Read Accesses: 0
CIC Read Accesses: 0
CIC Tag Write Accesses: 0
CIC Write Accesses: 0
Wobbly critical IP cache stats: 
 Unused entries: 15
CIC Tag Read Accesses: 89454203
CIC Read Accesses: 0
CIC Tag Write Accesses: 304615
CIC Write Accesses: 0
ITLB TOTAL     ACCESS:    8766607  HIT:    8584250  MISS:     182357  HIT %:    97.9199  MISS %:    2.08013   MPKI: 3.64714
ITLB LOAD TRANSLATION ACCESS:    8148715  HIT:    8135620  MISS:      13095  HIT %:    99.8393  MISS %:     0.1607   MPKI: 0.2619
ITLB TRANSLATION FROM L1D PREFETCHER ACCESS:     617892  HIT:     448630  MISS:     169262  HIT %:    72.6065  MISS %:    27.3935   MPKI: 3.38524
ITLBprefetch_cycle_count: 0 prefetches_per_prefetch_cycle: -nan
ITLB PREFETCH  REQUESTED:          0  ISSUED:          0  USEFUL:     141771  USELESS:      27494
ITLB USEFUL LOAD PREFETCHES:     141771 PREFETCH ISSUED TO LOWER LEVEL:          0  ACCURACY: inf
ITLB TIMELY PREFETCHES:     141771 LATE PREFETCHES: 68 DROPPED PREFETCHES: 16
ITLB PREFETCHES SAME FILL-ORIGIN LEVEL: 0 DIFFERENT FILL-ORIGIN LEVEL: 0
ITLB AVERAGE MISS LATENCY: 15347.7 cycles
ITLB RQ	ACCESS:   11229569	FORWARD:          0	MERGED:    2448357	TO_CACHE:    8781212

DTLB TOTAL     ACCESS:   11613425  HIT:   11296571  MISS:     316854  HIT %:    97.2717  MISS %:    2.72834   MPKI: 6.33708
DTLB LOAD TRANSLATION ACCESS:   11613425  HIT:   11296571  MISS:     316854  HIT %:    97.2717  MISS %:    2.72834   MPKI: 6.33708
DTLBprefetch_cycle_count: 0 prefetches_per_prefetch_cycle: -nan
DTLB PREFETCH  REQUESTED:          0  ISSUED:          0  USEFUL:          0  USELESS:          0
DTLB USEFUL LOAD PREFETCHES:          0 PREFETCH ISSUED TO LOWER LEVEL:          0  ACCURACY: -nan
DTLB TIMELY PREFETCHES:          0 LATE PREFETCHES: 0 DROPPED PREFETCHES: 0
DTLB PREFETCHES SAME FILL-ORIGIN LEVEL: 0 DIFFERENT FILL-ORIGIN LEVEL: 0
DTLB AVERAGE MISS LATENCY: 10.348 cycles
DTLB RQ	ACCESS:   13884409	FORWARD:          0	MERGED:    2254483	TO_CACHE:   11629926

STLB TOTAL     ACCESS:     745665  HIT:     741459  MISS:       4206  HIT %:    99.4359  MISS %:    0.56406   MPKI: 0.08412
STLB LOAD TRANSLATION ACCESS:     329881  HIT:     325993  MISS:       3888  HIT %:    98.8214  MISS %:    1.17861   MPKI: 0.07776
STLB TRANSLATION FROM L1D PREFETCHER ACCESS:     415784  HIT:     415466  MISS:        318  HIT %:    99.9235  MISS %:   0.076482   MPKI: 0.00636
STLBprefetch_cycle_count: 0 prefetches_per_prefetch_cycle: -nan
STLB PREFETCH  REQUESTED:          0  ISSUED:          0  USEFUL:        239  USELESS:         58
STLB USEFUL LOAD PREFETCHES:        239 PREFETCH ISSUED TO LOWER LEVEL:          0  ACCURACY: inf
STLB TIMELY PREFETCHES:        239 LATE PREFETCHES: 0 DROPPED PREFETCHES: 16
STLB PREFETCHES SAME FILL-ORIGIN LEVEL: 0 DIFFERENT FILL-ORIGIN LEVEL: 0
STLB AVERAGE MISS LATENCY: 125.033 cycles
STLB RQ	ACCESS:     824896	FORWARD:          0	MERGED:      79215	TO_CACHE:     745681

STLB Hit, L1D data hit: 0
STLB Hit, L2C data hit: 0
STLB Hit, LLC data hit: 0
STLB Hit, LLC data miss: 0
STLB STLB hints to L2: 0
L1D TOTAL     ACCESS:   14026576  HIT:   13366026  MISS:     660550  HIT %:    95.2907  MISS %:    4.70927   MPKI: 13.211
L1D LOAD      ACCESS:    8792014  HIT:    8318575  MISS:     473439  HIT %:    94.6151  MISS %:    5.38488   MPKI: 9.46878
L1D RFO       ACCESS:    4928035  HIT:    4852993  MISS:      75042  HIT %:    98.4772  MISS %:    1.52276   MPKI: 1.50084
L1D PREFETCH  ACCESS:     306527  HIT:     194458  MISS:     112069  HIT %:    63.4391  MISS %:    36.5609   MPKI: 2.24138
L1Dprefetch_cycle_count: 247054 prefetches_per_prefetch_cycle: 2.63645
L1D PREFETCH  REQUESTED:     651347  ISSUED:     651345  USEFUL:      44368  USELESS:      67646
L1D USEFUL LOAD PREFETCHES:      44368 PREFETCH ISSUED TO LOWER LEVEL:     124806  ACCURACY: 35.5496
L1D TIMELY PREFETCHES:      44368 LATE PREFETCHES: 11379 DROPPED PREFETCHES: 0
L1D PREFETCHES SAME FILL-ORIGIN LEVEL: 124806 DIFFERENT FILL-ORIGIN LEVEL: 0
L1D AVERAGE MISS LATENCY: 814909 cycles
L1D RQ	ACCESS:   12806604	FORWARD:          0	MERGED:    3874651	TO_CACHE:    8846987
L1D WQ	ACCESS:    5437654	FORWARD:      84973	MERGED:     400232	TO_CACHE:    5037422
L1D PQ	ACCESS:     325676	FORWARD:          0	MERGED:          0	TO_CACHE:     325669

L1D UNIQUE REGIONS ACCESSED: 0
L1D REGIONS CONFLICTS: 0
L1D Cross Page Prefetch Requests: 0
L1D Same Page Prefetch Requests: 336342
L1D ROI Sum of L1D PQ occupancy: 4261287
L1D PREFETCHES PUSHED FROM L2C: 0
L1I TOTAL     ACCESS:   11200373  HIT:   10025040  MISS:    1175333  HIT %:    89.5063  MISS %:    10.4937   MPKI: 23.5067
L1I LOAD      ACCESS:    9641134  HIT:    9595963  MISS:      45171  HIT %:    99.5315  MISS %:   0.468524   MPKI: 0.90342
L1I PREFETCH  ACCESS:    1559239  HIT:     429077  MISS:    1130162  HIT %:    27.5184  MISS %:    72.4816   MPKI: 22.6032
L1Iprefetch_cycle_count: 0 prefetches_per_prefetch_cycle: inf
L1I PREFETCH  REQUESTED:    1606319  ISSUED:    1605737  USEFUL:     846651  USELESS:     283557
L1I USEFUL LOAD PREFETCHES:     846651 PREFETCH ISSUED TO LOWER LEVEL:    1136853  ACCURACY: 74.4732
L1I TIMELY PREFETCHES:     846651 LATE PREFETCHES: 6691 DROPPED PREFETCHES: 21
L1I PREFETCHES SAME FILL-ORIGIN LEVEL: 1136853 DIFFERENT FILL-ORIGIN LEVEL: 0
L1I AVERAGE MISS LATENCY: 248558 cycles
L1I RQ	ACCESS:   14353951	FORWARD:          0	MERGED:    4705529	TO_CACHE:    9648422
L1I PQ	ACCESS:    1605737	FORWARD:          0	MERGED:      24590	TO_CACHE:    1581147

BTB TOTAL     ACCESS:    6145704  HIT:    5759281  MISS:     386423  HIT %:    93.7123  MISS %:    6.28769   MPKI: 7.72846
BTB BRANCH_DIRECT_JUMP	ACCESS:     735331  HIT:     732025  MISS:       3306
BTB BRANCH_INDIRECT	ACCESS:     269194  HIT:     145703  MISS:     123491
BTB BRANCH_CONDITIONAL	ACCESS:    3930750  HIT:    3920624  MISS:      10126
BTB BRANCH_DIRECT_CALL	ACCESS:     368758  HIT:     363374  MISS:       5384
BTB BRANCH_INDIRECT_CALL	ACCESS:     226975  HIT:     162973  MISS:      64002
BTB BRANCH_RETURN	ACCESS:     614696  HIT:     434582  MISS:     180114
BTB BRANCH_OTHER ACCESS:          0  HIT:          0  MISS:          0

L2C TOTAL     ACCESS:    2076332  HIT:    1882946  MISS:     193386  HIT %:    90.6862  MISS %:    9.31383   MPKI: 3.86772
L2C LOAD      ACCESS:     500420  HIT:     398861  MISS:     101559  HIT %:    79.7052  MISS %:    20.2948   MPKI: 2.03118
L2C DATA LOAD MPKI: 1.94526
L2C INSTRUCTION LOAD MPKI: 0.08592
L2C RFO       ACCESS:      73673  HIT:      31180  MISS:      42493  HIT %:    42.3222  MISS %:    57.6778   MPKI: 0.84986
L2C PREFETCH  ACCESS:    1261659  HIT:    1216023  MISS:      45636  HIT %:    96.3829  MISS %:    3.61714   MPKI: 0.91272
L2C DATA PREFETCH MPKI: 0.73988
L2C INSTRUCTION PREFETCH MPKI: 0.17284
L2C WRITEBACK ACCESS:     236165  HIT:     234278  MISS:       1887  HIT %:     99.201  MISS %:   0.799018   MPKI: 0.03774
L2C LOAD TRANSLATION ACCESS:       4059  HIT:       2461  MISS:       1598  HIT %:    60.6307  MISS %:    39.3693   MPKI: 0.03196
L2C TRANSLATION FROM L1D PREFETCHER ACCESS:        356  HIT:        143  MISS:        213  HIT %:    40.1685  MISS %:    59.8315   MPKI: 0.00426
L2Cprefetch_cycle_count: 0 prefetches_per_prefetch_cycle: -nan
L2C PREFETCH  REQUESTED:          0  ISSUED:          0  USEFUL:       4264  USELESS:      43089
L2C USEFUL LOAD PREFETCHES:       4264 PREFETCH ISSUED TO LOWER LEVEL:      45636  ACCURACY: 9.3435
L2C TIMELY PREFETCHES:       4264 LATE PREFETCHES: 0 DROPPED PREFETCHES: 0
L2C PREFETCHES SAME FILL-ORIGIN LEVEL: 0 DIFFERENT FILL-ORIGIN LEVEL: 0
L2C AVERAGE MISS LATENCY: 148.267 cycles
L2C RQ	ACCESS:     578639	FORWARD:          0	MERGED:          0	TO_CACHE:     578508
L2C WQ	ACCESS:     236165	FORWARD:        131	MERGED:          0	TO_CACHE:     236165
L2C PQ	ACCESS:    1261659	FORWARD:          0	MERGED:          0	TO_CACHE:    1261659

L2C Instructions Evicting Data 9595
L2C Translations Evicting Data 1471
L2C Data Evicting Data 162732
L2C Instructions Evicting Instructions 3047
L2C Translations Evicting Instructions 309
L2C Data Evicting Instructions 12380
L2C Instructions Evicting Translations 296
L2C Translations Evicting Translations 31
L2C Data Evicting Translations 1638
L2C Dense regions hint from L2: 0
PSCL5 TOTAL     ACCESS:       4222  HIT:       4222  MISS:          0  HIT %:        100  MISS %:          0   MPKI: 0
PSCL5 LOAD TRANSLATION ACCESS:       3888  HIT:       3888  MISS:          0  HIT %:        100  MISS %:          0   MPKI: 0
PSCL5 TRANSLATION FROM L1D PREFETCHER ACCESS:        334  HIT:        334  MISS:          0  HIT %:        100  MISS %:          0   MPKI: 0
PSCL5prefetch_cycle_count: 0 prefetches_per_prefetch_cycle: -nan
PSCL5 PREFETCH  REQUESTED:          0  ISSUED:          0  USEFUL:          0  USELESS:          0
PSCL5 USEFUL LOAD PREFETCHES:          0 PREFETCH ISSUED TO LOWER LEVEL:          0  ACCURACY: -nan
PSCL5 TIMELY PREFETCHES:          0 LATE PREFETCHES: 0 DROPPED PREFETCHES: 0
PSCL5 PREFETCHES SAME FILL-ORIGIN LEVEL: 0 DIFFERENT FILL-ORIGIN LEVEL: 0

PSCL4 TOTAL     ACCESS:       3936  HIT:       3929  MISS:          7  HIT %:    99.8222  MISS %:   0.177846   MPKI: 0.00014
PSCL4 LOAD TRANSLATION ACCESS:       3630  HIT:       3623  MISS:          7  HIT %:    99.8072  MISS %:   0.192837   MPKI: 0.00014
PSCL4 TRANSLATION FROM L1D PREFETCHER ACCESS:        306  HIT:        306  MISS:          0  HIT %:        100  MISS %:          0   MPKI: 0
PSCL4prefetch_cycle_count: 0 prefetches_per_prefetch_cycle: -nan
PSCL4 PREFETCH  REQUESTED:          0  ISSUED:          0  USEFUL:          0  USELESS:          0
PSCL4 USEFUL LOAD PREFETCHES:          0 PREFETCH ISSUED TO LOWER LEVEL:          0  ACCURACY: -nan
PSCL4 TIMELY PREFETCHES:          0 LATE PREFETCHES: 0 DROPPED PREFETCHES: 0
PSCL4 PREFETCHES SAME FILL-ORIGIN LEVEL: 0 DIFFERENT FILL-ORIGIN LEVEL: 0

PSCL3 TOTAL     ACCESS:       4166  HIT:       4149  MISS:         17  HIT %:    99.5919  MISS %:   0.408065   MPKI: 0.00034
PSCL3 LOAD TRANSLATION ACCESS:       3844  HIT:       3827  MISS:         17  HIT %:    99.5578  MISS %:   0.442248   MPKI: 0.00034
PSCL3 TRANSLATION FROM L1D PREFETCHER ACCESS:        322  HIT:        322  MISS:          0  HIT %:        100  MISS %:          0   MPKI: 0
PSCL3prefetch_cycle_count: 0 prefetches_per_prefetch_cycle: -nan
PSCL3 PREFETCH  REQUESTED:          0  ISSUED:          0  USEFUL:          0  USELESS:          0
PSCL3 USEFUL LOAD PREFETCHES:          0 PREFETCH ISSUED TO LOWER LEVEL:          0  ACCURACY: -nan
PSCL3 TIMELY PREFETCHES:          0 LATE PREFETCHES: 0 DROPPED PREFETCHES: 0
PSCL3 PREFETCHES SAME FILL-ORIGIN LEVEL: 0 DIFFERENT FILL-ORIGIN LEVEL: 0

PSCL2 TOTAL     ACCESS:       4222  HIT:       4048  MISS:        174  HIT %:    95.8787  MISS %:    4.12127   MPKI: 0.00348
PSCL2 LOAD TRANSLATION ACCESS:       3906  HIT:       3732  MISS:        174  HIT %:    95.5453  MISS %:    4.45469   MPKI: 0.00348
PSCL2 TRANSLATION FROM L1D PREFETCHER ACCESS:        316  HIT:        316  MISS:          0  HIT %:        100  MISS %:          0   MPKI: 0
PSCL2prefetch_cycle_count: 0 prefetches_per_prefetch_cycle: -nan
PSCL2 PREFETCH  REQUESTED:          0  ISSUED:          0  USEFUL:          0  USELESS:          0
PSCL2 USEFUL LOAD PREFETCHES:          0 PREFETCH ISSUED TO LOWER LEVEL:          0  ACCURACY: -nan
PSCL2 TIMELY PREFETCHES:          0 LATE PREFETCHES: 0 DROPPED PREFETCHES: 0
PSCL2 PREFETCHES SAME FILL-ORIGIN LEVEL: 0 DIFFERENT FILL-ORIGIN LEVEL: 0

LLC TOTAL     ACCESS:     260847  HIT:     121412  MISS:     139435  HIT %:    46.5453  MISS %:    53.4547   MPKI: 2.7887
LLC LOAD      ACCESS:     101559  HIT:      34877  MISS:      66682  HIT %:    34.3416  MISS %:    65.6584   MPKI: 1.33364
LLC RFO       ACCESS:      42493  HIT:       5046  MISS:      37447  HIT %:    11.8749  MISS %:    88.1251   MPKI: 0.74894
LLC PREFETCH  ACCESS:      45636  HIT:      14058  MISS:      31578  HIT %:    30.8046  MISS %:    69.1954   MPKI: 0.63156
LLC WRITEBACK ACCESS:      69348  HIT:      66712  MISS:       2636  HIT %:    96.1989  MISS %:    3.80112   MPKI: 0.05272
LLC LOAD TRANSLATION ACCESS:       1598  HIT:        628  MISS:        970  HIT %:    39.2991  MISS %:    60.7009   MPKI: 0.0194
LLC TRANSLATION FROM L1D PREFETCHER ACCESS:        213  HIT:         91  MISS:        122  HIT %:     42.723  MISS %:     57.277   MPKI: 0.00244
LLCprefetch_cycle_count: 0 prefetches_per_prefetch_cycle: -nan
LLC PREFETCH  REQUESTED:          0  ISSUED:          0  USEFUL:       3542  USELESS:      28771
LLC USEFUL LOAD PREFETCHES:       3542 PREFETCH ISSUED TO LOWER LEVEL:      31578  ACCURACY: 11.2167
LLC TIMELY PREFETCHES:       3542 LATE PREFETCHES: 0 DROPPED PREFETCHES: 0
LLC PREFETCHES SAME FILL-ORIGIN LEVEL: 0 DIFFERENT FILL-ORIGIN LEVEL: 0
LLC AVERAGE MISS LATENCY: 163.726 cycles
LLC RQ	ACCESS:     145863	FORWARD:          0	MERGED:          0	TO_CACHE:     145863
LLC WQ	ACCESS:      69348	FORWARD:          0	MERGED:          0	TO_CACHE:      69348
LLC PQ	ACCESS:      45636	FORWARD:          0	MERGED:          0	TO_CACHE:      45636

LLC Dense regions hint to LLC: 0

RAW hits: 1073331
Loads Generated: 13879936
Loads sent to L1D: 12806604
Stores Generated: 5437650
Stores sent to L1D: 5437654
Major fault: 0 Minor fault: 4494
Allocated PAGES: 4494
I-Shadow cache 408 bytes
Touched + WorthPF tables 6144 bytes 
MMA filter 174 bytes 
FNL filter 272 bytes 
TOTAL PREFETCHER STORAGE SIZE: 25174 bytes
CPU 0 L1I next line prefetcher final stats

total_pref_operate_instances_l1: 2099371
dynamic_config_counter_instances_1: 1171870
dynamic_config_counter_instances_2: 234232
dynamic_config_counter_instances_3: 10287
dynamic_config_counter_instances_4: 4859
dynamic_config_counter_instances_5: 678123
stream: 
stream:times selected: 417859
stream:pref_filled: 45904
stream:pref_useful: 11699
stream:pref_late: 794
stream:misses: 3947
stream:misses_by_poll: 0

CS: 
CS:times selected: 81777
CS:pref_filled: 18840
CS:pref_useful: 16683
CS:pref_late: 6775
CS:misses: 12471
CS:misses_by_poll: 43

CPLX: 
CPLX:times selected: 334785
CPLX:pref_filled: 28815
CPLX:pref_useful: 11672
CPLX:pref_late: 1967
CPLX:misses: 44354
CPLX:misses_by_poll: 53

NL_L1: 
NL:times selected: 71207
NL:pref_filled: 24823
NL:pref_useful: 6044
NL:pref_late: 577
NL:misses: 20487
NL:misses_by_poll: 50

total selections: 905628
total_filled: 112069
total_useful: 44368
total_late: 11499
total_polluted: 146
total_misses_after_warmup: 138950
conflicts: 263655
Degree Incremented Times: 6899
Degree Decremented Times: 11037

L1 IP Table Write Accesses: 1623570
L1 IP Table Read Accesses: 1359915
L1 RST Write Accesses: 406847
L1 RST Read Accesses: 813694
L1 CSPT Write Accesses: 406847
L1 CSPT Read Accesses: 731223
L1 RR Filter Tag Write Accesses: 325678
L1 RR Filter Tag Read Accesses: 15784279
L1 IP Table Tag Write Accesses: 2099371
L1 IP Table Tag Read Accesses: 2099371
L1 RST Tag Write Accesses: 0
L1 RST Tag Read Accesses: 3523389
L1 RR Filter Write Accesses: 0
L1 RR Filter Read Accesses: 555210
test: 124735

DRAM Statistics
 CHANNEL 0
 RQ ROW_BUFFER_HIT:      27960  ROW_BUFFER_MISS:     108836
 DBUS_CONGESTED:         48
 WQ ROW_BUFFER_HIT:      10873  ROW_BUFFER_MISS:      50048  FULL:          0

 AVG_CONGESTED_CYCLE: 5
 All warmup complete: 2
Channel 0 Bank busy for read cycles: 0
Channel 0 Bank busy for write cycles: 0
Channel 0
Rank 0
0banks busy for read cycles: 53810701
0banks busy for write cycles: 22492
1banks busy for read cycles: 7108414
1banks busy for write cycles: 3148525
2banks busy for read cycles: 2214031
2banks busy for write cycles: 1118415
3banks busy for read cycles: 878758
3banks busy for write cycles: 551027
4banks busy for read cycles: 316686
4banks busy for write cycles: 303247
5banks busy for read cycles: 152312
5banks busy for write cycles: 175178
6banks busy for read cycles: 78368
6banks busy for write cycles: 123591
7banks busy for read cycles: 49715
7banks busy for write cycles: 104151
8banks busy for read cycles: 91351
8banks busy for write cycles: 309112

CPU 0 Branch Prediction Accuracy: 98.8607% MPKI: 1.8623 Average ROB Occupancy at Mispredict: 73.6011
Branch types
NOT_BRANCH: 41826774 83.6535%
BRANCH_DIRECT_JUMP: 735331 1.47066%
BRANCH_INDIRECT: 269194 0.538388%
BRANCH_CONDITIONAL: 5957947 11.9159%
BRANCH_DIRECT_CALL: 368758 0.737516%
BRANCH_INDIRECT_CALL: 226975 0.45395%
BRANCH_RETURN: 614696 1.22939%
BRANCH_OTHER: 0 0%

DRAM PAGES: 1048576
Allocated PAGES: 4494
