Initialize SIGNATURE TABLE
ST_SET: 1
ST_WAY: 16
ST_TAG_BIT: 16
ST_TAG_MASK: ffff

Initialize PATTERN TABLE
PT_SET: 16
PT_WAY: 4
SIG_DELTA_BIT: 7
C_SIG_BIT: 4
C_DELTA_BIT: 4

Initialize PREFETCH FILTER
FILTER_SET: 1024

Initialize PERCEPTRON
PERC_ENTRIES: 4096
PERC_FEATURES: 9

*** ChampSim Multicore Out-of-Order Simulator ***

Warmup Instructions: 50000000
Simulation Instructions: 50000000
Number of CPUs: 1
LLC sets: 2048
LLC ways: 16
Off-chip DRAM Size: 4096 MB Channels: 1 Width: 64-bit Data Rate: 6400 MT/s
CPU 0 runs ../IPC-traces//client_006.champsimtrace.xz
.xz
BTB has LRU replacement policy
ITLB has LRU replacement policy
DTLB has LRU replacement policy
STLB has LRU replacement policy
CPU 0 L1I next line prefetcher
L1I has LRU replacement policy
L1D has LRU replacement policy
Initialize SRRIP state for L2C
Initialize DRRIP state for LLC
Heartbeat CPU 0 instructions: 10000001 cycles: 3365577 heartbeat IPC: 2.97126 cumulative IPC: 2.97126 (Simulation time: 0 hr 4 min 48 sec) 
Heartbeat CPU 0 instructions: 20000002 cycles: 6627698 heartbeat IPC: 3.06549 cumulative IPC: 3.01764 (Simulation time: 0 hr 8 min 23 sec) 
Heartbeat CPU 0 instructions: 30000003 cycles: 9422610 heartbeat IPC: 3.57793 cumulative IPC: 3.18383 (Simulation time: 0 hr 11 min 26 sec) 
Heartbeat CPU 0 instructions: 40000000 cycles: 12349077 heartbeat IPC: 3.41709 cumulative IPC: 3.23911 (Simulation time: 0 hr 15 min 2 sec) 
Heartbeat CPU 0 instructions: 50000003 cycles: 15544230 heartbeat IPC: 3.12974 cumulative IPC: 3.21663 (Simulation time: 0 hr 18 min 16 sec) 

Warmup complete CPU 0 instructions: 50000003 cycles: 15544230 (Simulation time: 0 hr 18 min 16 sec) 

Heartbeat CPU 0 instructions: 60000002 cycles: 30156448 heartbeat IPC: 0.684359 cumulative IPC: 0.684359 (Simulation time: 0 hr 21 min 38 sec) 
Heartbeat CPU 0 instructions: 70000000 cycles: 47853874 heartbeat IPC: 0.565054 cumulative IPC: 0.61901 (Simulation time: 0 hr 25 min 15 sec) 
Heartbeat CPU 0 instructions: 80000002 cycles: 62708944 heartbeat IPC: 0.673171 cumulative IPC: 0.636069 (Simulation time: 0 hr 28 min 38 sec) 
Heartbeat CPU 0 instructions: 90000003 cycles: 77589305 heartbeat IPC: 0.672027 cumulative IPC: 0.644693 (Simulation time: 0 hr 31 min 44 sec) 
Heartbeat CPU 0 instructions: 100000001 cycles: 92220008 heartbeat IPC: 0.683494 cumulative IPC: 0.652096 (Simulation time: 0 hr 34 min 49 sec) 
Finished CPU 0 instructions: 50000002 cycles: 76675779 cumulative IPC: 0.652096 (Simulation time: 0 hr 34 min 49 sec) 

ChampSim completed all CPUs

Region of Interest Statistics

CPU 0 cumulative IPC: 0.652096 instructions: 50000002 cycles: 76675779

CPU 0 Average Load ROB stall cycles: 1.83795e+07
CPU 0 Fraction of times ROB stalled by Loads: 33.6637
CPU 0 Percentage of Load stall cycles in Total stall cycles: 1.99355e+08
Issued all: 30695487
Issued LT all: 24509717
rob_not_full_when_issued_lt_all: 19402199
Issued LT one: 20381207
rob_not_full_when_issued_lt_one: 15596582
 Total stall cycles: 64439152
 Total load stall cycles: 128462712259671
Unique Load IPs: 14924
CPU 0 NUM of IPS identified critical: 2
CPU 0 Num of Load IPs stalling ROB: 0
Threshold modification factor: 0
Trouble in retire width: -nan
MaC = Marked as critical.
lt_50_percent_before_Mac: 1
gt_90_percent_before_Mac: 1
gt_75_percent_before_Mac: 0
gt_50_percent_before_Mac: 0
stall_proportion_bin_same_before_after: 0
stall_proportion_bin_lower_before_after: 0
stall_proportion_bin_upper_before_after: 0
average_stall_proportion_before: 0.0226185
average_stall_proportion_after: 0.0503169
Critical_IP_Detector_Accuracy_70: 0.5
Critical_IP_Detector_Accuracy_80: 0.5
Critical_IP_Detector_Accuracy_90: 0.5
Critical_IP_Detector_Coverage_70: 1
Critical_IP_Detector_Coverage_80: 1
Critical_IP_Detector_Coverage_90: 1
stat_90_percent_critical_ip_stalls_freq: 87239
stat_90_percent_non_critical_ip_stalls_freq: 18446744073709464377
AVERAGE_ROB_Occupancy_90_Percent_Critical_IP_Stalls: 47.8202
AVERAGE_ROB_Occupancy_90_Percent_Non_Critical_IP_Stalls: 1.00377e-11
Critical_IP_ROB_Stalls_Bucket_0: 78122
Non-critical_IP_ROB_Stalls_Bucket_0: 1182847
Critical_IP_ROB_Stalls_Bucket_1: 2106
Non-critical_IP_ROB_Stalls_Bucket_1: 486364
Critical_IP_ROB_Stalls_Bucket_2: 419
Non-critical_IP_ROB_Stalls_Bucket_2: 251775
Critical_IP_ROB_Stalls_Bucket_3: 415
Non-critical_IP_ROB_Stalls_Bucket_3: 123655
Critical_IP_ROB_Stalls_Bucket_4: 599
Non-critical_IP_ROB_Stalls_Bucket_4: 62321
Critical_IP_ROB_Stalls_Bucket_5: 1482
Non-critical_IP_ROB_Stalls_Bucket_5: 39118
Critical_IP_ROB_Stalls_Bucket_6: 4688
Non-critical_IP_ROB_Stalls_Bucket_6: 118994
0 => IPs accounting for >50 percent of stalls, 1 => 55, 2 => 60, 3 => 65 and so on till 90.
percent50: inf num IPs:  1
percent55: inf num IPs: 1
percent60: inf num IPs: 1
percent65: inf num IPs: 1
percent70: inf num IPs: 1
percent75: inf num IPs: 1
percent80: inf num IPs: 1
percent85: inf num IPs: 1
percent90: inf num IPs: 1
Critical_ROB_Stalls_Percent_0_Bucket_0: 77941
Non-critical_ROB_Stalls_Percent_0_Bucket_0: 1183028
Critical_ROB_Stalls_Percent_0_Bucket_1: 1856
Non-critical_ROB_Stalls_Percent_0_Bucket_1: 486614
Critical_ROB_Stalls_Percent_0_Bucket_2: 405
Non-critical_ROB_Stalls_Percent_0_Bucket_2: 251789
Critical_ROB_Stalls_Percent_0_Bucket_3: 385
Non-critical_ROB_Stalls_Percent_0_Bucket_3: 123685
Critical_ROB_Stalls_Percent_0_Bucket_4: 544
Non-critical_ROB_Stalls_Percent_0_Bucket_4: 62376
Critical_ROB_Stalls_Percent_0_Bucket_5: 1442
Non-critical_ROB_Stalls_Percent_0_Bucket_5: 39158
Critical_ROB_Stalls_Percent_0_Bucket_6: 4666
Non-critical_ROB_Stalls_Percent_0_Bucket_6: 119016
Critical_ROB_Stalls_Percent_1_Bucket_0: 77941
Non-critical_ROB_Stalls_Percent_1_Bucket_0: 1183028
Critical_ROB_Stalls_Percent_1_Bucket_1: 1856
Non-critical_ROB_Stalls_Percent_1_Bucket_1: 486614
Critical_ROB_Stalls_Percent_1_Bucket_2: 405
Non-critical_ROB_Stalls_Percent_1_Bucket_2: 251789
Critical_ROB_Stalls_Percent_1_Bucket_3: 385
Non-critical_ROB_Stalls_Percent_1_Bucket_3: 123685
Critical_ROB_Stalls_Percent_1_Bucket_4: 544
Non-critical_ROB_Stalls_Percent_1_Bucket_4: 62376
Critical_ROB_Stalls_Percent_1_Bucket_5: 1442
Non-critical_ROB_Stalls_Percent_1_Bucket_5: 39158
Critical_ROB_Stalls_Percent_1_Bucket_6: 4666
Non-critical_ROB_Stalls_Percent_1_Bucket_6: 119016
Critical_ROB_Stalls_Percent_2_Bucket_0: 77941
Non-critical_ROB_Stalls_Percent_2_Bucket_0: 1183028
Critical_ROB_Stalls_Percent_2_Bucket_1: 1856
Non-critical_ROB_Stalls_Percent_2_Bucket_1: 486614
Critical_ROB_Stalls_Percent_2_Bucket_2: 405
Non-critical_ROB_Stalls_Percent_2_Bucket_2: 251789
Critical_ROB_Stalls_Percent_2_Bucket_3: 385
Non-critical_ROB_Stalls_Percent_2_Bucket_3: 123685
Critical_ROB_Stalls_Percent_2_Bucket_4: 544
Non-critical_ROB_Stalls_Percent_2_Bucket_4: 62376
Critical_ROB_Stalls_Percent_2_Bucket_5: 1442
Non-critical_ROB_Stalls_Percent_2_Bucket_5: 39158
Critical_ROB_Stalls_Percent_2_Bucket_6: 4666
Non-critical_ROB_Stalls_Percent_2_Bucket_6: 119016
Critical_ROB_Stalls_Percent_3_Bucket_0: 77941
Non-critical_ROB_Stalls_Percent_3_Bucket_0: 1183028
Critical_ROB_Stalls_Percent_3_Bucket_1: 1856
Non-critical_ROB_Stalls_Percent_3_Bucket_1: 486614
Critical_ROB_Stalls_Percent_3_Bucket_2: 405
Non-critical_ROB_Stalls_Percent_3_Bucket_2: 251789
Critical_ROB_Stalls_Percent_3_Bucket_3: 385
Non-critical_ROB_Stalls_Percent_3_Bucket_3: 123685
Critical_ROB_Stalls_Percent_3_Bucket_4: 544
Non-critical_ROB_Stalls_Percent_3_Bucket_4: 62376
Critical_ROB_Stalls_Percent_3_Bucket_5: 1442
Non-critical_ROB_Stalls_Percent_3_Bucket_5: 39158
Critical_ROB_Stalls_Percent_3_Bucket_6: 4666
Non-critical_ROB_Stalls_Percent_3_Bucket_6: 119016
Critical_ROB_Stalls_Percent_4_Bucket_0: 77941
Non-critical_ROB_Stalls_Percent_4_Bucket_0: 1183028
Critical_ROB_Stalls_Percent_4_Bucket_1: 1856
Non-critical_ROB_Stalls_Percent_4_Bucket_1: 486614
Critical_ROB_Stalls_Percent_4_Bucket_2: 405
Non-critical_ROB_Stalls_Percent_4_Bucket_2: 251789
Critical_ROB_Stalls_Percent_4_Bucket_3: 385
Non-critical_ROB_Stalls_Percent_4_Bucket_3: 123685
Critical_ROB_Stalls_Percent_4_Bucket_4: 544
Non-critical_ROB_Stalls_Percent_4_Bucket_4: 62376
Critical_ROB_Stalls_Percent_4_Bucket_5: 1442
Non-critical_ROB_Stalls_Percent_4_Bucket_5: 39158
Critical_ROB_Stalls_Percent_4_Bucket_6: 4666
Non-critical_ROB_Stalls_Percent_4_Bucket_6: 119016
Critical_ROB_Stalls_Percent_5_Bucket_0: 77941
Non-critical_ROB_Stalls_Percent_5_Bucket_0: 1183028
Critical_ROB_Stalls_Percent_5_Bucket_1: 1856
Non-critical_ROB_Stalls_Percent_5_Bucket_1: 486614
Critical_ROB_Stalls_Percent_5_Bucket_2: 405
Non-critical_ROB_Stalls_Percent_5_Bucket_2: 251789
Critical_ROB_Stalls_Percent_5_Bucket_3: 385
Non-critical_ROB_Stalls_Percent_5_Bucket_3: 123685
Critical_ROB_Stalls_Percent_5_Bucket_4: 544
Non-critical_ROB_Stalls_Percent_5_Bucket_4: 62376
Critical_ROB_Stalls_Percent_5_Bucket_5: 1442
Non-critical_ROB_Stalls_Percent_5_Bucket_5: 39158
Critical_ROB_Stalls_Percent_5_Bucket_6: 4666
Non-critical_ROB_Stalls_Percent_5_Bucket_6: 119016
Critical_ROB_Stalls_Percent_6_Bucket_0: 77941
Non-critical_ROB_Stalls_Percent_6_Bucket_0: 1183028
Critical_ROB_Stalls_Percent_6_Bucket_1: 1856
Non-critical_ROB_Stalls_Percent_6_Bucket_1: 486614
Critical_ROB_Stalls_Percent_6_Bucket_2: 405
Non-critical_ROB_Stalls_Percent_6_Bucket_2: 251789
Critical_ROB_Stalls_Percent_6_Bucket_3: 385
Non-critical_ROB_Stalls_Percent_6_Bucket_3: 123685
Critical_ROB_Stalls_Percent_6_Bucket_4: 544
Non-critical_ROB_Stalls_Percent_6_Bucket_4: 62376
Critical_ROB_Stalls_Percent_6_Bucket_5: 1442
Non-critical_ROB_Stalls_Percent_6_Bucket_5: 39158
Critical_ROB_Stalls_Percent_6_Bucket_6: 4666
Non-critical_ROB_Stalls_Percent_6_Bucket_6: 119016
Critical_ROB_Stalls_Percent_7_Bucket_0: 77941
Non-critical_ROB_Stalls_Percent_7_Bucket_0: 1183028
Critical_ROB_Stalls_Percent_7_Bucket_1: 1856
Non-critical_ROB_Stalls_Percent_7_Bucket_1: 486614
Critical_ROB_Stalls_Percent_7_Bucket_2: 405
Non-critical_ROB_Stalls_Percent_7_Bucket_2: 251789
Critical_ROB_Stalls_Percent_7_Bucket_3: 385
Non-critical_ROB_Stalls_Percent_7_Bucket_3: 123685
Critical_ROB_Stalls_Percent_7_Bucket_4: 544
Non-critical_ROB_Stalls_Percent_7_Bucket_4: 62376
Critical_ROB_Stalls_Percent_7_Bucket_5: 1442
Non-critical_ROB_Stalls_Percent_7_Bucket_5: 39158
Critical_ROB_Stalls_Percent_7_Bucket_6: 4666
Non-critical_ROB_Stalls_Percent_7_Bucket_6: 119016
Critical_ROB_Stalls_Percent_8_Bucket_0: 77941
Non-critical_ROB_Stalls_Percent_8_Bucket_0: 1183028
Critical_ROB_Stalls_Percent_8_Bucket_1: 1856
Non-critical_ROB_Stalls_Percent_8_Bucket_1: 486614
Critical_ROB_Stalls_Percent_8_Bucket_2: 405
Non-critical_ROB_Stalls_Percent_8_Bucket_2: 251789
Critical_ROB_Stalls_Percent_8_Bucket_3: 385
Non-critical_ROB_Stalls_Percent_8_Bucket_3: 123685
Critical_ROB_Stalls_Percent_8_Bucket_4: 544
Non-critical_ROB_Stalls_Percent_8_Bucket_4: 62376
Critical_ROB_Stalls_Percent_8_Bucket_5: 1442
Non-critical_ROB_Stalls_Percent_8_Bucket_5: 39158
Critical_ROB_Stalls_Percent_8_Bucket_6: 4666
Non-critical_ROB_Stalls_Percent_8_Bucket_6: 119016
Average ROB occupancy Load Stall Begin: 68.3424
Average ROB occupancy Load Stall End: 80.4684
Min ROB occupancy Load Stall Begin: 1
Max ROB occupancy Load Stall Begin: 352
Min ROB occupancy Load Stall End: 1
Max ROB occupancy Load Stall End: 352
Average ROB occupancy Critical Load Stall Begin: 35.7704
Average ROB occupancy Critical Load Stall End: 41.0979
Min ROB occupancy Critical Load Stall Begin: 8
Max ROB occupancy Critical Load Stall Begin: 352
Min ROB occupancy Critical Load Stall End: 12
Max ROB occupancy Critical Load Stall End: 352
 ROB Load Stall Begin Bucket Count 0: 1475519
 ROB Load Stall End Bucket Count 0: 1260969
 ROB Critical Load Stall Begin Bucket Count 0: 79301
 ROB Critical Load Stall End Bucket Count 0: 77720
 ROB Load Stall Begin Bucket Count 1: 392841
 ROB Load Stall End Bucket Count 1: 488470
 ROB Critical Load Stall Begin Bucket Count 1: 580
 ROB Critical Load Stall End Bucket Count 1: 1806
 ROB Load Stall Begin Bucket Count 2: 202608
 ROB Load Stall End Bucket Count 2: 252194
 ROB Critical Load Stall Begin Bucket Count 2: 149
 ROB Critical Load Stall End Bucket Count 2: 338
 ROB Load Stall Begin Bucket Count 3: 90648
 ROB Load Stall End Bucket Count 3: 124070
 ROB Critical Load Stall Begin Bucket Count 3: 143
 ROB Critical Load Stall End Bucket Count 3: 229
 ROB Load Stall Begin Bucket Count 4: 48472
 ROB Load Stall End Bucket Count 4: 62920
 ROB Critical Load Stall Begin Bucket Count 4: 779
 ROB Critical Load Stall End Bucket Count 4: 405
 ROB Load Stall Begin Bucket Count 5: 36321
 ROB Load Stall End Bucket Count 5: 40600
 ROB Critical Load Stall Begin Bucket Count 5: 2163
 ROB Critical Load Stall End Bucket Count 5: 1193
 ROB Load Stall Begin Bucket Count 6: 106496
 ROB Load Stall End Bucket Count 6: 123682
 ROB Critical Load Stall Begin Bucket Count 6: 1673
 ROB Critical Load Stall End Bucket Count 6: 3097
PIST Tag Read Accesses: 0
PIST Read Accesses: 0
PIST Tag Write Accesses: 0
PIST Write Accesses: 0
Criticality detector called times: 0
Max global_stall_cycles_count: 0
Threshold Modified: 0 times, factor: 0
Sturdy critical IP cache stats: 
 Unused entries: 0
CIC Tag Read Accesses: 0
CIC Read Accesses: 0
CIC Tag Write Accesses: 0
CIC Write Accesses: 0
Wobbly critical IP cache stats: 
 Unused entries: 7
CIC Tag Read Accesses: 121094064
CIC Read Accesses: 0
CIC Tag Write Accesses: 51805
CIC Write Accesses: 0
ITLB TOTAL     ACCESS:    8346931  HIT:    8149981  MISS:     196950  HIT %:    97.6405  MISS %:    2.35955   MPKI: 3.939
ITLB LOAD TRANSLATION ACCESS:    7600805  HIT:    7582831  MISS:      17974  HIT %:    99.7635  MISS %:   0.236475   MPKI: 0.35948
ITLB TRANSLATION FROM L1D PREFETCHER ACCESS:     746126  HIT:     567150  MISS:     178976  HIT %:    76.0126  MISS %:    23.9874   MPKI: 3.57952
ITLB PREFETCH  REQUESTED:          0  ISSUED:          0  USEFUL:     145408  USELESS:      33563
ITLB USEFUL LOAD PREFETCHES:     145408 PREFETCH ISSUED TO LOWER LEVEL:          0  ACCURACY: inf
ITLB TIMELY PREFETCHES:     145408 LATE PREFETCHES: 155 DROPPED PREFETCHES: 14
ITLB PREFETCHES SAME FILL-ORIGIN LEVEL: 0 DIFFERENT FILL-ORIGIN LEVEL: 0
ITLB AVERAGE MISS LATENCY: 46492.5 cycles
ITLB RQ	ACCESS:   11094090	FORWARD:          0	MERGED:    2737143	TO_CACHE:    8356947

DTLB TOTAL     ACCESS:    8978813  HIT:    8687592  MISS:     291221  HIT %:    96.7566  MISS %:    3.24342   MPKI: 5.82442
DTLB LOAD TRANSLATION ACCESS:    8978813  HIT:    8687592  MISS:     291221  HIT %:    96.7566  MISS %:    3.24342   MPKI: 5.82442
DTLB PREFETCH  REQUESTED:          0  ISSUED:          0  USEFUL:          0  USELESS:          0
DTLB USEFUL LOAD PREFETCHES:          0 PREFETCH ISSUED TO LOWER LEVEL:          0  ACCURACY: -nan
DTLB TIMELY PREFETCHES:          0 LATE PREFETCHES: 0 DROPPED PREFETCHES: 0
DTLB PREFETCHES SAME FILL-ORIGIN LEVEL: 0 DIFFERENT FILL-ORIGIN LEVEL: 0
DTLB AVERAGE MISS LATENCY: 18.6029 cycles
DTLB RQ	ACCESS:   10978982	FORWARD:          0	MERGED:    1982940	TO_CACHE:    8996042

STLB TOTAL     ACCESS:     488171  HIT:     462848  MISS:      25323  HIT %:    94.8127  MISS %:    5.18732   MPKI: 0.50646
STLB LOAD TRANSLATION ACCESS:     309040  HIT:     285393  MISS:      23647  HIT %:    92.3482  MISS %:    7.65176   MPKI: 0.47294
STLB TRANSLATION FROM L1D PREFETCHER ACCESS:     179131  HIT:     177455  MISS:       1676  HIT %:    99.0644  MISS %:   0.935628   MPKI: 0.03352
STLB PREFETCH  REQUESTED:          0  ISSUED:          0  USEFUL:       1102  USELESS:        598
STLB USEFUL LOAD PREFETCHES:       1102 PREFETCH ISSUED TO LOWER LEVEL:          0  ACCURACY: inf
STLB TIMELY PREFETCHES:       1102 LATE PREFETCHES: 0 DROPPED PREFETCHES: 14
STLB PREFETCHES SAME FILL-ORIGIN LEVEL: 0 DIFFERENT FILL-ORIGIN LEVEL: 0
STLB AVERAGE MISS LATENCY: 129.121 cycles
STLB RQ	ACCESS:     488185	FORWARD:          0	MERGED:          0	TO_CACHE:     488185

STLB Hit, L1D data hit: 0
STLB Hit, L2C data hit: 0
STLB Hit, LLC data hit: 0
STLB Hit, LLC data miss: 0
STLB STLB hints to L2: 0
L1D TOTAL     ACCESS:   10799947  HIT:   10297210  MISS:     502737  HIT %:     95.345  MISS %:      4.655   MPKI: 10.0547
L1D LOAD      ACCESS:    6465791  HIT:    6003020  MISS:     462771  HIT %:    92.8428  MISS %:    7.15722   MPKI: 9.25542
L1D RFO       ACCESS:    4334156  HIT:    4294190  MISS:      39966  HIT %:    99.0779  MISS %:   0.922117   MPKI: 0.79932
L1D PREFETCH  REQUESTED:          0  ISSUED:          0  USEFUL:          0  USELESS:          0
L1D USEFUL LOAD PREFETCHES:          0 PREFETCH ISSUED TO LOWER LEVEL:          0  ACCURACY: -nan
L1D TIMELY PREFETCHES:          0 LATE PREFETCHES: 0 DROPPED PREFETCHES: 0
L1D PREFETCHES SAME FILL-ORIGIN LEVEL: 0 DIFFERENT FILL-ORIGIN LEVEL: 0
L1D AVERAGE MISS LATENCY: 113.154 cycles
L1D RQ	ACCESS:   10552493	FORWARD:          0	MERGED:    3925518	TO_CACHE:    6540105
L1D WQ	ACCESS:    4525584	FORWARD:      86870	MERGED:      86707	TO_CACHE:    4438877

L1D UNIQUE REGIONS ACCESSED: 0
L1D REGIONS CONFLICTS: 0
L1D Cross Page Prefetch Requests: 0
L1D Same Page Prefetch Requests: 0
L1D ROI Sum of L1D PQ occupancy: 0
L1D PREFETCHES PUSHED FROM L2C: 0
L1I TOTAL     ACCESS:   11075818  HIT:   10105548  MISS:     970270  HIT %:    91.2397  MISS %:    8.76026   MPKI: 19.4054
L1I LOAD      ACCESS:    9121494  HIT:    9102746  MISS:      18748  HIT %:    99.7945  MISS %:   0.205537   MPKI: 0.37496
L1I PREFETCH  ACCESS:    1954324  HIT:    1002802  MISS:     951522  HIT %:     51.312  MISS %:     48.688   MPKI: 19.0304
L1I PREFETCH  REQUESTED:    2003315  ISSUED:    1999377  USEFUL:     748119  USELESS:     203403
L1I USEFUL LOAD PREFETCHES:     748119 PREFETCH ISSUED TO LOWER LEVEL:     955543  ACCURACY: 78.2926
L1I TIMELY PREFETCHES:     748119 LATE PREFETCHES: 3952 DROPPED PREFETCHES: 25
L1I PREFETCHES SAME FILL-ORIGIN LEVEL: 955543 DIFFERENT FILL-ORIGIN LEVEL: 0
L1I AVERAGE MISS LATENCY: 230736 cycles
L1I RQ	ACCESS:   13303979	FORWARD:          0	MERGED:    4178632	TO_CACHE:    9125347
L1I PQ	ACCESS:    1999377	FORWARD:          0	MERGED:      30634	TO_CACHE:    1968743

BTB TOTAL     ACCESS:    5652927  HIT:    5410510  MISS:     242417  HIT %:    95.7117  MISS %:    4.28834   MPKI: 4.84834
BTB BRANCH_DIRECT_JUMP	ACCESS:     413829  HIT:     410707  MISS:       3122
BTB BRANCH_INDIRECT	ACCESS:      47058  HIT:      28780  MISS:      18278
BTB BRANCH_CONDITIONAL	ACCESS:    3935184  HIT:    3928918  MISS:       6266
BTB BRANCH_DIRECT_CALL	ACCESS:     536885  HIT:     534001  MISS:       2884
BTB BRANCH_INDIRECT_CALL	ACCESS:      90642  HIT:      74824  MISS:      15818
BTB BRANCH_RETURN	ACCESS:     629329  HIT:     433280  MISS:     196049
BTB BRANCH_OTHER ACCESS:          0  HIT:          0  MISS:          0

L2C TOTAL     ACCESS:    2013035  HIT:    1503575  MISS:     509460  HIT %:    74.6919  MISS %:    25.3081   MPKI: 10.1892
L2C LOAD      ACCESS:     477486  HIT:     177367  MISS:     300119  HIT %:     37.146  MISS %:     62.854   MPKI: 6.00238
L2C DATA LOAD MPKI: 5.88292
L2C INSTRUCTION LOAD MPKI: 0.11946
L2C RFO       ACCESS:      39961  HIT:       7713  MISS:      32248  HIT %:    19.3013  MISS %:    80.6987   MPKI: 0.64496
L2C PREFETCH  ACCESS:    1311280  HIT:    1153685  MISS:     157595  HIT %:    87.9816  MISS %:    12.0184   MPKI: 3.1519
L2C DATA PREFETCH MPKI: 2.38912
L2C INSTRUCTION PREFETCH MPKI: 0.76278
L2C WRITEBACK ACCESS:     156017  HIT:     150322  MISS:       5695  HIT %:    96.3498  MISS %:    3.65024   MPKI: 0.1139
L2C LOAD TRANSLATION ACCESS:      26243  HIT:      13666  MISS:      12577  HIT %:    52.0748  MISS %:    47.9252   MPKI: 0.25154
L2C TRANSLATION FROM L1D PREFETCHER ACCESS:       2048  HIT:        822  MISS:       1226  HIT %:    40.1367  MISS %:    59.8633   MPKI: 0.02452
L2C PREFETCH  REQUESTED:     534323  ISSUED:     534154  USEFUL:      93350  USELESS:      66968
L2C USEFUL LOAD PREFETCHES:      93350 PREFETCH ISSUED TO LOWER LEVEL:     177273  ACCURACY: 52.6589
L2C TIMELY PREFETCHES:      93350 LATE PREFETCHES: 17629 DROPPED PREFETCHES: 0
L2C PREFETCHES SAME FILL-ORIGIN LEVEL: 137818 DIFFERENT FILL-ORIGIN LEVEL: 2049
L2C AVERAGE MISS LATENCY: 122.13 cycles
L2C RQ	ACCESS:     545824	FORWARD:          0	MERGED:          0	TO_CACHE:     545738
L2C WQ	ACCESS:     156017	FORWARD:         86	MERGED:          0	TO_CACHE:     156017
L2C PQ	ACCESS:    1489628	FORWARD:          0	MERGED:     144397	TO_CACHE:    1345231

L2C Instructions Evicting Data 37614
L2C Translations Evicting Data 11834
L2C Data Evicting Data 395269
L2C Instructions Evicting Instructions 5324
L2C Translations Evicting Instructions 1450
L2C Data Evicting Instructions 38472
L2C Instructions Evicting Translations 1174
L2C Translations Evicting Translations 519
L2C Data Evicting Translations 12109
L2C Dense regions hint from L2: 0
PSCL5 TOTAL     ACCESS:      25337  HIT:      25337  MISS:          0  HIT %:        100  MISS %:          0   MPKI: 0
PSCL5 LOAD TRANSLATION ACCESS:      23647  HIT:      23647  MISS:          0  HIT %:        100  MISS %:          0   MPKI: 0
PSCL5 TRANSLATION FROM L1D PREFETCHER ACCESS:       1690  HIT:       1690  MISS:          0  HIT %:        100  MISS %:          0   MPKI: 0
PSCL5 PREFETCH  REQUESTED:          0  ISSUED:          0  USEFUL:          0  USELESS:          0
PSCL5 USEFUL LOAD PREFETCHES:          0 PREFETCH ISSUED TO LOWER LEVEL:          0  ACCURACY: -nan
PSCL5 TIMELY PREFETCHES:          0 LATE PREFETCHES: 0 DROPPED PREFETCHES: 0
PSCL5 PREFETCHES SAME FILL-ORIGIN LEVEL: 0 DIFFERENT FILL-ORIGIN LEVEL: 0

PSCL4 TOTAL     ACCESS:      22523  HIT:      22499  MISS:         24  HIT %:    99.8934  MISS %:   0.106558   MPKI: 0.00048
PSCL4 LOAD TRANSLATION ACCESS:      20995  HIT:      20971  MISS:         24  HIT %:    99.8857  MISS %:   0.114313   MPKI: 0.00048
PSCL4 TRANSLATION FROM L1D PREFETCHER ACCESS:       1528  HIT:       1528  MISS:          0  HIT %:        100  MISS %:          0   MPKI: 0
PSCL4 PREFETCH  REQUESTED:          0  ISSUED:          0  USEFUL:          0  USELESS:          0
PSCL4 USEFUL LOAD PREFETCHES:          0 PREFETCH ISSUED TO LOWER LEVEL:          0  ACCURACY: -nan
PSCL4 TIMELY PREFETCHES:          0 LATE PREFETCHES: 0 DROPPED PREFETCHES: 0
PSCL4 PREFETCHES SAME FILL-ORIGIN LEVEL: 0 DIFFERENT FILL-ORIGIN LEVEL: 0

PSCL3 TOTAL     ACCESS:      25238  HIT:      25150  MISS:         88  HIT %:    99.6513  MISS %:   0.348681   MPKI: 0.00176
PSCL3 LOAD TRANSLATION ACCESS:      23607  HIT:      23519  MISS:         88  HIT %:    99.6272  MISS %:   0.372771   MPKI: 0.00176
PSCL3 TRANSLATION FROM L1D PREFETCHER ACCESS:       1631  HIT:       1631  MISS:          0  HIT %:        100  MISS %:          0   MPKI: 0
PSCL3 PREFETCH  REQUESTED:          0  ISSUED:          0  USEFUL:          0  USELESS:          0
PSCL3 USEFUL LOAD PREFETCHES:          0 PREFETCH ISSUED TO LOWER LEVEL:          0  ACCURACY: -nan
PSCL3 TIMELY PREFETCHES:          0 LATE PREFETCHES: 0 DROPPED PREFETCHES: 0
PSCL3 PREFETCHES SAME FILL-ORIGIN LEVEL: 0 DIFFERENT FILL-ORIGIN LEVEL: 0

PSCL2 TOTAL     ACCESS:      25335  HIT:      22473  MISS:       2862  HIT %:    88.7034  MISS %:    11.2966   MPKI: 0.05724
PSCL2 LOAD TRANSLATION ACCESS:      23978  HIT:      21116  MISS:       2862  HIT %:    88.0641  MISS %:    11.9359   MPKI: 0.05724
PSCL2 TRANSLATION FROM L1D PREFETCHER ACCESS:       1357  HIT:       1357  MISS:          0  HIT %:        100  MISS %:          0   MPKI: 0
PSCL2 PREFETCH  REQUESTED:          0  ISSUED:          0  USEFUL:          0  USELESS:          0
PSCL2 USEFUL LOAD PREFETCHES:          0 PREFETCH ISSUED TO LOWER LEVEL:          0  ACCURACY: -nan
PSCL2 TIMELY PREFETCHES:          0 LATE PREFETCHES: 0 DROPPED PREFETCHES: 0
PSCL2 PREFETCHES SAME FILL-ORIGIN LEVEL: 0 DIFFERENT FILL-ORIGIN LEVEL: 0

LLC TOTAL     ACCESS:     633792  HIT:     345341  MISS:     288451  HIT %:    54.4881  MISS %:    45.5119   MPKI: 5.76902
LLC LOAD      ACCESS:     282490  HIT:      77555  MISS:     204935  HIT %:    27.4541  MISS %:    72.5459   MPKI: 4.0987
LLC RFO       ACCESS:      32248  HIT:       3369  MISS:      28879  HIT %:    10.4472  MISS %:    89.5528   MPKI: 0.57758
LLC PREFETCH  ACCESS:     177251  HIT:     138092  MISS:      39159  HIT %:    77.9076  MISS %:    22.0924   MPKI: 0.78318
LLC WRITEBACK ACCESS:     128000  HIT:     119765  MISS:       8235  HIT %:    93.5664  MISS %:    6.43359   MPKI: 0.1647
LLC LOAD TRANSLATION ACCESS:      12577  HIT:       5924  MISS:       6653  HIT %:    47.1019  MISS %:    52.8981   MPKI: 0.13306
LLC TRANSLATION FROM L1D PREFETCHER ACCESS:       1226  HIT:        636  MISS:        590  HIT %:     51.876  MISS %:     48.124   MPKI: 0.0118
LLC PREFETCH  REQUESTED:          0  ISSUED:          0  USEFUL:       2829  USELESS:      45845
LLC USEFUL LOAD PREFETCHES:       2829 PREFETCH ISSUED TO LOWER LEVEL:      39159  ACCURACY: 7.22439
LLC TIMELY PREFETCHES:       2829 LATE PREFETCHES: 0 DROPPED PREFETCHES: 0
LLC PREFETCHES SAME FILL-ORIGIN LEVEL: 653 DIFFERENT FILL-ORIGIN LEVEL: 0
LLC AVERAGE MISS LATENCY: 167.437 cycles
LLC RQ	ACCESS:     328541	FORWARD:          0	MERGED:          0	TO_CACHE:     328541
LLC WQ	ACCESS:     128000	FORWARD:          0	MERGED:          0	TO_CACHE:     128000
LLC PQ	ACCESS:     177273	FORWARD:          0	MERGED:          9	TO_CACHE:     177264

LLC Dense regions hint to LLC: 0

RAW hits: 1023076
Loads Generated: 11575568
Loads sent to L1D: 10552493
Stores Generated: 4525581
Stores sent to L1D: 4525584
Major fault: 0 Minor fault: 10830
Allocated PAGES: 10830
I-Shadow cache 408 bytes
Touched + WorthPF tables 6144 bytes 
MMA filter 174 bytes 
FNL filter 272 bytes 
TOTAL PREFETCHER STORAGE SIZE: 25174 bytes
CPU 0 L1I next line prefetcher final stats
------------------
Depth Distribution
------------------
depth 0: 18061
depth 1: 275252
depth 2: 169338
depth 3: 643282
depth 4: 36039
depth 5: 20874
depth 6: 11280
depth 7: 8267
depth 8: 9362
depth 9: 12861
depth 10: 6499
depth 11: 19605
depth 12: 38834
depth 13: 3827
depth 14: 93692
depth 15: 15307
depth 16: 9483
depth 17: 3825
depth 18: 1602
depth 19: 73
depth 20: 4
depth 21: 0
depth 22: 0
depth 23: 0
depth 24: 0
depth 25: 0
depth 26: 0
depth 27: 0
depth 28: 0
depth 29: 0
Total: 1397367
------------------
ST read accesses: 409175
ST write accesses: 100189
PT read accesses: 15335952
PT write accesses: 510408
FILTER read accesses: 3741059
FILTER write accesses: 1841884
GHR read accesses: 1933117
GHR write accesses: 209498
PERC read accesses: 107394858
PERC write accesses: 4121381
GHR counter read accesses: 1018728
GHR counter write accesses: 1372565
GHR ip read accesses: 3167721
GHR ip write accesses: 2037456
ST tag read accesses: 15689669
ST tag write accesses: 2126781

DRAM Statistics
 CHANNEL 0
 RQ ROW_BUFFER_HIT:      61691  ROW_BUFFER_MISS:     218521
 DBUS_CONGESTED:        139
 WQ ROW_BUFFER_HIT:      26849  ROW_BUFFER_MISS:      85053  FULL:          0

 AVG_CONGESTED_CYCLE: 4
 All warmup complete: 2
Channel 0 Bank busy for read cycles: 0
Channel 0 Bank busy for write cycles: 0
Channel 0
Rank 0
0banks busy for read cycles: 43423314
0banks busy for write cycles: 38773
1banks busy for read cycles: 14824719
1banks busy for write cycles: 5829938
2banks busy for read cycles: 4536800
2banks busy for write cycles: 2161003
3banks busy for read cycles: 1596936
3banks busy for write cycles: 1004927
4banks busy for read cycles: 501168
4banks busy for write cycles: 516853
5banks busy for read cycles: 213886
5banks busy for write cycles: 279646
6banks busy for read cycles: 163389
6banks busy for write cycles: 190801
7banks busy for read cycles: 121940
7banks busy for write cycles: 225805
8banks busy for read cycles: 291619
8banks busy for write cycles: 754263

CPU 0 Branch Prediction Accuracy: 98.1683% MPKI: 3.13642 Average ROB Occupancy at Mispredict: 70.488
Branch types
NOT_BRANCH: 41438057 82.8761%
BRANCH_DIRECT_JUMP: 413829 0.827658%
BRANCH_INDIRECT: 47058 0.094116%
BRANCH_CONDITIONAL: 6843835 13.6877%
BRANCH_DIRECT_CALL: 536885 1.07377%
BRANCH_INDIRECT_CALL: 90642 0.181284%
BRANCH_RETURN: 629329 1.25866%
BRANCH_OTHER: 0 0%

DRAM PAGES: 1048576
Allocated PAGES: 10830
