Initialize SIGNATURE TABLE
ST_SET: 1
ST_WAY: 256
ST_TAG_BIT: 16
ST_TAG_MASK: ffff

Initialize PATTERN TABLE
PT_SET: 512
PT_WAY: 4
SIG_DELTA_BIT: 7
C_SIG_BIT: 4
C_DELTA_BIT: 4

Initialize PREFETCH FILTER
FILTER_SET: 1024
MANA initialize 
tds: 2 tdm: 4
size MANA SINGLE: 25.5 KB
size MANA NULTIPLE: 9.875 KB
size HOBPT: 0.703125 KB
size SRQ: 0.0644531 KB
size SABs: 0.0402832 KB
size prefetch queue: 0.453125 KB
total: 36.636 KB

*** ChampSim Multicore Out-of-Order Simulator ***

Warmup Instructions: 50000000
Simulation Instructions: 50000000
Number of CPUs: 1
LLC sets: 2048
LLC ways: 16
Off-chip DRAM Size: 4096 MB Channels: 1 Width: 64-bit Data Rate: 6400 MT/s
CPU 0 runs ../IPC-traces//client_007.champsimtrace.xz
.xz
BTB has LRU replacement policy
ITLB has LRU replacement policy
DTLB has LRU replacement policy
STLB has LRU replacement policy
L1I has LRU replacement policy
L1D has LRU replacement policy
Initialize SRRIP state for L2C
Initialize DRRIP state for LLC
Heartbeat CPU 0 instructions: 10000003 cycles: 3183698 heartbeat IPC: 3.141 cumulative IPC: 3.141 (Simulation time: 0 hr 5 min 7 sec) 
Heartbeat CPU 0 instructions: 20000003 cycles: 6243342 heartbeat IPC: 3.26835 cumulative IPC: 3.20341 (Simulation time: 0 hr 8 min 31 sec) 
Heartbeat CPU 0 instructions: 30000000 cycles: 9431915 heartbeat IPC: 3.1362 cumulative IPC: 3.18069 (Simulation time: 0 hr 12 min 50 sec) 
Heartbeat CPU 0 instructions: 40000003 cycles: 12737511 heartbeat IPC: 3.02517 cumulative IPC: 3.14033 (Simulation time: 0 hr 16 min 56 sec) 
Heartbeat CPU 0 instructions: 50000001 cycles: 15707080 heartbeat IPC: 3.36749 cumulative IPC: 3.18328 (Simulation time: 0 hr 20 min 15 sec) 

Warmup complete CPU 0 instructions: 50000001 cycles: 15707080 (Simulation time: 0 hr 20 min 15 sec) 

Epoch all ip prefetch: 0, epoch id: 2
Epoch all ip prefetch: 1, epoch id: 3
Epoch all ip prefetch: 0, epoch id: 4
Epoch all ip prefetch: 0, epoch id: 5
Epoch all ip prefetch: 0, epoch id: 6
Epoch all ip prefetch: 0, epoch id: 7
Epoch all ip prefetch: 0, epoch id: 8
Epoch all ip prefetch: 0, epoch id: 9
Epoch all ip prefetch: 0, epoch id: 10
Epoch all ip prefetch: 0, epoch id: 11
Heartbeat CPU 0 instructions: 60000003 cycles: 29027306 heartbeat IPC: 0.750738 cumulative IPC: 0.750738 (Simulation time: 0 hr 24 min 25 sec) 
Epoch all ip prefetch: 0, epoch id: 12
Epoch all ip prefetch: 0, epoch id: 13
Epoch all ip prefetch: 0, epoch id: 14
Epoch all ip prefetch: 0, epoch id: 15
Epoch all ip prefetch: 0, epoch id: 16
Epoch all ip prefetch: 0, epoch id: 17
Epoch all ip prefetch: 0, epoch id: 18
Epoch all ip prefetch: 0, epoch id: 19
Epoch all ip prefetch: 0, epoch id: 20
Epoch all ip prefetch: 0, epoch id: 21
Heartbeat CPU 0 instructions: 70000003 cycles: 45531383 heartbeat IPC: 0.605911 cumulative IPC: 0.670594 (Simulation time: 0 hr 28 min 42 sec) 
Epoch all ip prefetch: 0, epoch id: 22
Epoch all ip prefetch: 0, epoch id: 23
Epoch all ip prefetch: 0, epoch id: 24
Epoch all ip prefetch: 0, epoch id: 25
Epoch all ip prefetch: 0, epoch id: 26
Epoch all ip prefetch: 0, epoch id: 27
Epoch all ip prefetch: 0, epoch id: 28
Epoch all ip prefetch: 0, epoch id: 29
Epoch all ip prefetch: 0, epoch id: 30
Epoch all ip prefetch: 0, epoch id: 31
Heartbeat CPU 0 instructions: 80000001 cycles: 56017031 heartbeat IPC: 0.953684 cumulative IPC: 0.744233 (Simulation time: 0 hr 32 min 2 sec) 
Epoch all ip prefetch: 0, epoch id: 32
Epoch all ip prefetch: 0, epoch id: 33
Epoch all ip prefetch: 0, epoch id: 34
Epoch all ip prefetch: 0, epoch id: 35
Epoch all ip prefetch: 0, epoch id: 36
Epoch all ip prefetch: 0, epoch id: 37
Epoch all ip prefetch: 0, epoch id: 38
Epoch all ip prefetch: 0, epoch id: 39
Epoch all ip prefetch: 0, epoch id: 40
Epoch all ip prefetch: 0, epoch id: 41
Heartbeat CPU 0 instructions: 90000001 cycles: 70485487 heartbeat IPC: 0.691159 cumulative IPC: 0.730215 (Simulation time: 0 hr 35 min 29 sec) 
Epoch all ip prefetch: 0, epoch id: 42
Epoch all ip prefetch: 0, epoch id: 43
Epoch all ip prefetch: 0, epoch id: 44
Epoch all ip prefetch: 0, epoch id: 45
Epoch all ip prefetch: 0, epoch id: 46
Epoch all ip prefetch: 0, epoch id: 47
Epoch all ip prefetch: 0, epoch id: 48
Epoch all ip prefetch: 0, epoch id: 49
Epoch all ip prefetch: 0, epoch id: 50
Epoch all ip prefetch: 0, epoch id: 51
Heartbeat CPU 0 instructions: 100000000 cycles: 86254048 heartbeat IPC: 0.634173 cumulative IPC: 0.708748 (Simulation time: 0 hr 39 min 24 sec) 
Finished CPU 0 instructions: 50000001 cycles: 70546969 cumulative IPC: 0.708748 (Simulation time: 0 hr 39 min 24 sec) 

ChampSim completed all CPUs

Region of Interest Statistics

CPU 0 cumulative IPC: 0.708748 instructions: 50000001 cycles: 70546969

CPU 0 Average Load ROB stall cycles: 3.56354
CPU 0 Fraction of times ROB stalled by Loads: 26.5666
CPU 0 Percentage of Load stall cycles in Total stall cycles: 47.2649
CPU 0 NUM of IPS identified critical: 0

Average ROB occupancy Load Stall Begin: 87.2487
Average ROB occupancy Load Stall End: 95.5949
Min ROB occupancy Load Stall Begin: 1
Max ROB occupancy Load Stall Begin: 351
Min ROB occupancy Load Stall End: 1
Max ROB occupancy Load Stall End: 352
Average ROB occupancy Critical Load Stall Begin: -nan
Average ROB occupancy Critical Load Stall End: -nan
Min ROB occupancy Critical Load Stall Begin: 400
Max ROB occupancy Critical Load Stall Begin: 0
Min ROB occupancy Critical Load Stall End: 400
Max ROB occupancy Critical Load Stall End: 0
 ROB Load Stall Begin Bucket Count 0: 1002653
 ROB Load Stall End Bucket Count 0: 844595
 ROB Critical Load Stall Begin Bucket Count 0: 0
 ROB Critical Load Stall End Bucket Count 0: 0
 ROB Load Stall Begin Bucket Count 1: 352357
 ROB Load Stall End Bucket Count 1: 460453
 ROB Critical Load Stall Begin Bucket Count 1: 0
 ROB Critical Load Stall End Bucket Count 1: 0
 ROB Load Stall Begin Bucket Count 2: 175776
 ROB Load Stall End Bucket Count 2: 197056
 ROB Critical Load Stall Begin Bucket Count 2: 0
 ROB Critical Load Stall End Bucket Count 2: 0
 ROB Load Stall Begin Bucket Count 3: 89974
 ROB Load Stall End Bucket Count 3: 103008
 ROB Critical Load Stall Begin Bucket Count 3: 0
 ROB Critical Load Stall End Bucket Count 3: 0
 ROB Load Stall Begin Bucket Count 4: 42058
 ROB Load Stall End Bucket Count 4: 49433
 ROB Critical Load Stall Begin Bucket Count 4: 0
 ROB Critical Load Stall End Bucket Count 4: 0
 ROB Load Stall Begin Bucket Count 5: 22948
 ROB Load Stall End Bucket Count 5: 26531
 ROB Critical Load Stall Begin Bucket Count 5: 0
 ROB Critical Load Stall End Bucket Count 5: 0
 ROB Load Stall Begin Bucket Count 6: 170095
 ROB Load Stall End Bucket Count 6: 174785
 ROB Critical Load Stall Begin Bucket Count 6: 0
 ROB Critical Load Stall End Bucket Count 6: 0
Threshold Modified: 1 times, factor: -1
Sturdy critical IP cache stats: 
 Unused entries: 96
Wobbly critical IP cache stats: 
 Unused entries: 192
ITLB TOTAL     ACCESS:   11430986  HIT:   11255590  MISS:     175396  HIT %:    98.4656  MISS %:    1.53439   MPKI: 3.50792
ITLB LOAD TRANSLATION ACCESS:    8137229  HIT:    8098727  MISS:      38502  HIT %:    99.5268  MISS %:   0.473159   MPKI: 0.77004
ITLB TRANSLATION FROM L1D PREFETCHER ACCESS:    3293757  HIT:    3156863  MISS:     136894  HIT %:    95.8438  MISS %:    4.15617   MPKI: 2.73788
ITLB AVERAGE MISS LATENCY: 1.93897e+06 cycles
ITLB RQ	ACCESS:   20404189	FORWARD:          0	MERGED:    8938453	TO_CACHE:   11465736

DTLB TOTAL     ACCESS:   11644375  HIT:   11327488  MISS:     316887  HIT %:    97.2786  MISS %:    2.72137   MPKI: 6.33774
DTLB LOAD TRANSLATION ACCESS:   11644375  HIT:   11327488  MISS:     316887  HIT %:    97.2786  MISS %:    2.72137   MPKI: 6.33774
DTLB AVERAGE MISS LATENCY: 10.5022 cycles
DTLB RQ	ACCESS:   13912690	FORWARD:          0	MERGED:    2253005	TO_CACHE:   11659685

STLB TOTAL     ACCESS:     492283  HIT:     488079  MISS:       4204  HIT %:     99.146  MISS %:    0.85398   MPKI: 0.08408
STLB LOAD TRANSLATION ACCESS:     347672  HIT:     343721  MISS:       3951  HIT %:    98.8636  MISS %:    1.13642   MPKI: 0.07902
STLB TRANSLATION FROM L1D PREFETCHER ACCESS:     144611  HIT:     144358  MISS:        253  HIT %:     99.825  MISS %:   0.174952   MPKI: 0.00506
STLB AVERAGE MISS LATENCY: 136.993 cycles
STLB RQ	ACCESS:     498640	FORWARD:          0	MERGED:          0	TO_CACHE:     498640

STLB Hit, L1D data hit: 0
STLB Hit, L2C data hit: 0
STLB Hit, LLC data hit: 0
STLB Hit, LLC data miss: 0
STLB STLB hints to L2: 0
L1D TOTAL     ACCESS:   13740964  HIT:   13174838  MISS:     566126  HIT %:      95.88  MISS %:    4.11999   MPKI: 11.3225
L1D LOAD      ACCESS:    8818883  HIT:    8328837  MISS:     490046  HIT %:    94.4432  MISS %:    5.55678   MPKI: 9.80092
L1D RFO       ACCESS:    4922081  HIT:    4846001  MISS:      76080  HIT %:    98.4543  MISS %:    1.54569   MPKI: 1.5216
L1D AVERAGE MISS LATENCY: 50.637 cycles
L1D RQ	ACCESS:   12822874	FORWARD:          0	MERGED:    3866717	TO_CACHE:    8871185
L1D WQ	ACCESS:    5437654	FORWARD:      84972	MERGED:     396149	TO_CACHE:    5041505

L1D UNIQUE REGIONS ACCESSED: 0
L1D REGIONS CONFLICTS: 0
L1D Cross Page Prefetch Requests: 0
L1D Same Page Prefetch Requests: 0
L1D ROI Sum of L1D PQ occupancy: 0
L1D PREFETCHES PUSHED FROM L2C: 0
L1I TOTAL     ACCESS:   20229058  HIT:   19255314  MISS:     973744  HIT %:    95.1864  MISS %:    4.81359   MPKI: 19.4749
L1I LOAD      ACCESS:    9608457  HIT:    9446982  MISS:     161475  HIT %:    98.3194  MISS %:    1.68055   MPKI: 3.2295
L1I PREFETCH  ACCESS:   10620601  HIT:    9808332  MISS:     812269  HIT %:    92.3519  MISS %:    7.64805   MPKI: 16.2454
L1I PREFETCH  REQUESTED:   13002283  ISSUED:   11767295  USEFUL:     678501  USELESS:     133763
L1I USEFUL LOAD PREFETCHES:     678501 PREFETCH ISSUED TO LOWER LEVEL:     853864  ACCURACY: 79.4624
L1I TIMELY PREFETCHES:     678501 LATE PREFETCHES: 41527 DROPPED PREFETCHES: 6384
L1I AVERAGE MISS LATENCY: 1.87188e+06 cycles
L1I RQ	ACCESS:   14357389	FORWARD:          0	MERGED:    4718236	TO_CACHE:    9639153
L1I PQ	ACCESS:   11767295	FORWARD:          0	MERGED:    1002259	TO_CACHE:   10765036

BTB TOTAL     ACCESS:    6145705  HIT:    5759282  MISS:     386423  HIT %:    93.7123  MISS %:    6.28769   MPKI: 7.72846
BTB BRANCH_DIRECT_JUMP	ACCESS:     735331  HIT:     732025  MISS:       3306
BTB BRANCH_INDIRECT	ACCESS:     269194  HIT:     145703  MISS:     123491
BTB BRANCH_CONDITIONAL	ACCESS:    3930751  HIT:    3920625  MISS:      10126
BTB BRANCH_DIRECT_CALL	ACCESS:     368758  HIT:     363374  MISS:       5384
BTB BRANCH_INDIRECT_CALL	ACCESS:     226975  HIT:     162973  MISS:      64002
BTB BRANCH_RETURN	ACCESS:     614696  HIT:     434582  MISS:     180114
BTB BRANCH_OTHER ACCESS:          0  HIT:          0  MISS:          0

L2C TOTAL     ACCESS:    2221266  HIT:    2043936  MISS:     177330  HIT %:    92.0167  MISS %:    7.98329   MPKI: 3.5466
L2C LOAD      ACCESS:     609860  HIT:     491659  MISS:     118201  HIT %:    80.6183  MISS %:    19.3817   MPKI: 2.36402
L2C DATA LOAD MPKI: 2.25226
L2C INSTRUCTION LOAD MPKI: 0.11176
L2C RFO       ACCESS:      76068  HIT:      29348  MISS:      46720  HIT %:    38.5813  MISS %:    61.4187   MPKI: 0.9344
L2C PREFETCH  ACCESS:    1292346  HIT:    1283752  MISS:       8594  HIT %:     99.335  MISS %:   0.664992   MPKI: 0.17188
L2C DATA PREFETCH MPKI: 0.05226
L2C INSTRUCTION PREFETCH MPKI: 0.11962
L2C WRITEBACK ACCESS:     232195  HIT:     230187  MISS:       2008  HIT %:    99.1352  MISS %:    0.86479   MPKI: 0.04016
L2C LOAD TRANSLATION ACCESS:       4137  HIT:       2514  MISS:       1623  HIT %:    60.7687  MISS %:    39.2313   MPKI: 0.03246
L2C TRANSLATION FROM L1D PREFETCHER ACCESS:       6660  HIT:       6476  MISS:        184  HIT %:    97.2372  MISS %:    2.76276   MPKI: 0.00368
L2C PREFETCH  REQUESTED:    1518480  ISSUED:    1518166  USEFUL:       3069  USELESS:       7029
L2C USEFUL LOAD PREFETCHES:       3069 PREFETCH ISSUED TO LOWER LEVEL:     535490  ACCURACY: 0.57312
L2C TIMELY PREFETCHES:       3069 LATE PREFETCHES: 470 DROPPED PREFETCHES: 0
L2C AVERAGE MISS LATENCY: 125.028 cycles
L2C RQ	ACCESS:     696871	FORWARD:          0	MERGED:          0	TO_CACHE:     696725
L2C WQ	ACCESS:     232195	FORWARD:        156	MERGED:          0	TO_CACHE:     232195
L2C PQ	ACCESS:    2371962	FORWARD:          0	MERGED:     542452	TO_CACHE:    1829500

L2C Instructions Evicting Data9031
L2C Translations Evicting Data1471
L2C Data Evicting Data148594
L2C Instructions Evicting Instructions2297
L2C Translations Evicting Instructions285
L2C Data Evicting Instructions11696
L2C Instructions Evicting Translations241
L2C Translations Evicting Translations51
L2C Data Evicting Translations1656
L2C Dense regions hint from L2: 0
PSCL5 TOTAL     ACCESS:      10561  HIT:      10561  MISS:          0  HIT %:        100  MISS %:          0   MPKI: 0
PSCL5 LOAD TRANSLATION ACCESS:       3951  HIT:       3951  MISS:          0  HIT %:        100  MISS %:          0   MPKI: 0
PSCL5 TRANSLATION FROM L1D PREFETCHER ACCESS:       6610  HIT:       6610  MISS:          0  HIT %:        100  MISS %:          0   MPKI: 0

PSCL4 TOTAL     ACCESS:       9632  HIT:       9624  MISS:          8  HIT %:    99.9169  MISS %:  0.0830565   MPKI: 0.00016
PSCL4 LOAD TRANSLATION ACCESS:       3689  HIT:       3681  MISS:          8  HIT %:    99.7831  MISS %:   0.216861   MPKI: 0.00016
PSCL4 TRANSLATION FROM L1D PREFETCHER ACCESS:       5943  HIT:       5943  MISS:          0  HIT %:        100  MISS %:          0   MPKI: 0

PSCL3 TOTAL     ACCESS:       8664  HIT:       8643  MISS:         21  HIT %:    99.7576  MISS %:   0.242382   MPKI: 0.00042
PSCL3 LOAD TRANSLATION ACCESS:       3337  HIT:       3316  MISS:         21  HIT %:    99.3707  MISS %:   0.629308   MPKI: 0.00042
PSCL3 TRANSLATION FROM L1D PREFETCHER ACCESS:       5327  HIT:       5327  MISS:          0  HIT %:        100  MISS %:          0   MPKI: 0

PSCL2 TOTAL     ACCESS:      10529  HIT:      10349  MISS:        180  HIT %:    98.2904  MISS %:    1.70956   MPKI: 0.0036
PSCL2 LOAD TRANSLATION ACCESS:       3966  HIT:       3786  MISS:        180  HIT %:    95.4614  MISS %:    4.53858   MPKI: 0.0036
PSCL2 TRANSLATION FROM L1D PREFETCHER ACCESS:       6563  HIT:       6563  MISS:          0  HIT %:        100  MISS %:          0   MPKI: 0

LLC TOTAL     ACCESS:     763662  HIT:     604183  MISS:     159479  HIT %:    79.1165  MISS %:    20.8835   MPKI: 3.18958
LLC LOAD      ACCESS:     117731  HIT:      61848  MISS:      55883  HIT %:    52.5333  MISS %:    47.4667   MPKI: 1.11766
LLC RFO       ACCESS:      46720  HIT:       5976  MISS:      40744  HIT %:    12.7911  MISS %:    87.2089   MPKI: 0.81488
LLC PREFETCH  ACCESS:     528002  HIT:     473659  MISS:      54343  HIT %:    89.7078  MISS %:    10.2922   MPKI: 1.08686
LLC WRITEBACK ACCESS:      69402  HIT:      62274  MISS:       7128  HIT %:    89.7294  MISS %:    10.2706   MPKI: 0.14256
LLC LOAD TRANSLATION ACCESS:       1623  HIT:        380  MISS:       1243  HIT %:    23.4134  MISS %:    76.5866   MPKI: 0.02486
LLC TRANSLATION FROM L1D PREFETCHER ACCESS:        184  HIT:         46  MISS:        138  HIT %:         25  MISS %:         75   MPKI: 0.00276
LLC AVERAGE MISS LATENCY: 158.576 cycles
LLC RQ	ACCESS:     166258	FORWARD:          0	MERGED:          0	TO_CACHE:     166258
LLC WQ	ACCESS:      69402	FORWARD:          0	MERGED:          0	TO_CACHE:      69402
LLC PQ	ACCESS:     535490	FORWARD:          0	MERGED:       1875	TO_CACHE:     533615

LLC Dense regions hint to LLC: 0

RAW hits: 1057061
Loads Generated: 13879936
Loads sent to L1D: 12822874
Stores Generated: 5437650
Stores sent to L1D: 5437654
Major fault: 0 Minor fault: 4494
Allocated PAGES: 4494



Printing Logs
statHeadFound: 2025529
statHeadMissing: 1475159
statStreamBufferHit: 12153073
statPrefetchEntryFound: 7756515
statCompactorMatch: 13931598
statStreamTrackerLookup: 15653761
statRecord: 1722163
statGetPointer: 3500688
statEnqueuePrefetch: 23392709
statPrefetchQueueIsFull: 1488
StreamBufferHitRate: 0.776368
Regions' size: 5767
next_region_correct: 1101116
next_region_wrong: 615272
next_region_correct_prediction: 0.641531
statStreamBufferLookups: 156537610
statL1iLookups: 187141672
statCompactorLookups: 250460176
------------------
Depth Distribution
------------------
depth 0: 0
depth 1: 2425489
depth 2: 735781
depth 3: 65615
depth 4: 14102
depth 5: 5382
depth 6: 2985
depth 7: 1716
depth 8: 923
depth 9: 295
depth 10: 35
depth 11: 8
depth 12: 0
depth 13: 0
depth 14: 0
depth 15: 0
depth 16: 0
depth 17: 0
depth 18: 0
depth 19: 0
depth 20: 0
depth 21: 0
depth 22: 0
depth 23: 0
depth 24: 0
depth 25: 0
depth 26: 0
depth 27: 0
depth 28: 0
depth 29: 0
Total: 3252331
-----------------------------
-----------------------------
	Captured at Filter
-----------------------------
depth 0: 0
depth 1: 279715
depth 2: 82522
depth 3: 20705
depth 4: 3917
depth 5: 162
depth 6: 13
depth 7: 9
depth 8: 6
depth 9: 2
depth 10: 0
depth 11: 0
depth 12: 0
depth 13: 0
depth 14: 0
depth 15: 0
depth 16: 0
depth 17: 0
depth 18: 0
depth 19: 0
depth 20: 0
depth 21: 0
depth 22: 0
depth 23: 0
depth 24: 0
depth 25: 0
depth 26: 0
depth 27: 0
depth 28: 0
depth 29: 0
-----------------------------
-----------------------------
		Lost at Page
-----------------------------
depth 0: 0
depth 1: 80401
depth 2: 33152
depth 3: 9078
depth 4: 3419
depth 5: 552
depth 6: 333
depth 7: 255
depth 8: 161
depth 9: 45
depth 10: 2
depth 11: 0
depth 12: 0
depth 13: 0
depth 14: 0
depth 15: 0
depth 16: 0
depth 17: 0
depth 18: 0
depth 19: 0
depth 20: 0
depth 21: 0
depth 22: 0
depth 23: 0
depth 24: 0
depth 25: 0
depth 26: 0
depth 27: 0
depth 28: 0
depth 29: 0
-----------------------------
-----------------------------
	Lost due to PQ Size
-----------------------------
21430
-----------------------------
ST read accesses: 557939699
ST write accesses: 58178021
PT read accesses: 17957067
PT write accesses: 1756640
FILTER read accesses: 3222435
FILTER write accesses: 198820
GHR read accesses: 1012382
GHR write accesses: 57132
GHR counter read accesses: 14677308
GHR counter write accesses: 1359981

DRAM Statistics
 CHANNEL 0
 RQ ROW_BUFFER_HIT:      29416  ROW_BUFFER_MISS:     122931
 DBUS_CONGESTED:         71
 WQ ROW_BUFFER_HIT:      10292  ROW_BUFFER_MISS:      46977  FULL:          0

 AVG_CONGESTED_CYCLE: 4

CPU 0 Branch Prediction Accuracy: 98.8607% MPKI: 1.8623 Average ROB Occupancy at Mispredict: 72.8077
Branch types
NOT_BRANCH: 41826778 83.6536%
BRANCH_DIRECT_JUMP: 735331 1.47066%
BRANCH_INDIRECT: 269194 0.538388%
BRANCH_CONDITIONAL: 5957948 11.9159%
BRANCH_DIRECT_CALL: 368758 0.737516%
BRANCH_INDIRECT_CALL: 226975 0.45395%
BRANCH_RETURN: 614696 1.22939%
BRANCH_OTHER: 0 0%

DRAM PAGES: 1048576
Allocated PAGES: 4494
