
*** ChampSim Multicore Out-of-Order Simulator ***

Warmup Instructions: 50000000
Simulation Instructions: 50000000
Number of CPUs: 1
LLC sets: 2048
LLC ways: 16
Off-chip DRAM Size: 4096 MB Channels: 1 Width: 64-bit Data Rate: 6400 MT/s
CPU 0 runs ../IPC-traces//client_008.champsimtrace.xz
.xz
NUM_OF_IPS_IN_CRITICAL_IP_TRAINING: 64
NUM_OF_CRITICAL_IP_TRAINING_TABLE_WAYS: 2
NUM_OF_CRITICAL_IP_TRAINING_TABLE_SETS: 32
WOBBLY_CRITICAL_IP_CACHE_SETS: 32
WOBBLY_CRITICAL_IP_CACHE_WAYS: 4
BTB has LRU replacement policy
ITLB has LRU replacement policy
DTLB has LRU replacement policy
STLB has LRU replacement policy
CPU 0 L1I next line prefetcher
L1I has LRU replacement policy
IP Table Entries: 64
L1D has LRU replacement policy
Initialize SRRIP state for L2C
Initialize DRRIP state for LLC
Heartbeat CPU 0 instructions: 10000001 cycles: 3016094 heartbeat IPC: 3.31555 cumulative IPC: 3.31555 (Simulation time: 0 hr 5 min 45 sec) 
Heartbeat CPU 0 instructions: 20000001 cycles: 6043219 heartbeat IPC: 3.30346 cumulative IPC: 3.30949 (Simulation time: 0 hr 10 min 20 sec) 
Heartbeat CPU 0 instructions: 30000001 cycles: 9053508 heartbeat IPC: 3.32194 cumulative IPC: 3.31363 (Simulation time: 0 hr 14 min 20 sec) 
Heartbeat CPU 0 instructions: 40000000 cycles: 12091632 heartbeat IPC: 3.2915 cumulative IPC: 3.30807 (Simulation time: 0 hr 17 min 54 sec) 
Heartbeat CPU 0 instructions: 50000003 cycles: 15132937 heartbeat IPC: 3.28806 cumulative IPC: 3.30405 (Simulation time: 0 hr 21 min 22 sec) 

Warmup complete CPU 0 instructions: 50000003 cycles: 15132937 (Simulation time: 0 hr 21 min 22 sec) 

% increase in all ip prefetch 407.868
% increase in all ip prefetch 2.03158
Heartbeat CPU 0 instructions: 60000003 cycles: 31170834 heartbeat IPC: 0.623523 cumulative IPC: 0.623523 (Simulation time: 0 hr 24 min 34 sec) 
Heartbeat CPU 0 instructions: 70000001 cycles: 46414906 heartbeat IPC: 0.655993 cumulative IPC: 0.639346 (Simulation time: 0 hr 27 min 51 sec) 
Heartbeat CPU 0 instructions: 80000000 cycles: 63446684 heartbeat IPC: 0.587138 cumulative IPC: 0.620941 (Simulation time: 0 hr 31 min 1 sec) 
Heartbeat CPU 0 instructions: 90000001 cycles: 80277244 heartbeat IPC: 0.594157 cumulative IPC: 0.614021 (Simulation time: 0 hr 33 min 51 sec) 
Heartbeat CPU 0 instructions: 100000001 cycles: 94324865 heartbeat IPC: 0.711864 cumulative IPC: 0.631377 (Simulation time: 0 hr 38 min 50 sec) 
Finished CPU 0 instructions: 50000002 cycles: 79191929 cumulative IPC: 0.631377 (Simulation time: 0 hr 38 min 50 sec) 

ChampSim completed all CPUs

Region of Interest Statistics

CPU 0 cumulative IPC: 0.631377 instructions: 50000002 cycles: 79191929

CPU 0 Average Load ROB stall cycles: 2.40429e+07
CPU 0 Fraction of times ROB stalled by Loads: 44.2853
CPU 0 Percentage of Load stall cycles in Total stall cycles: 2.85257e+08
Issued all: 28810749
Issued LT all: 23114661
rob_not_full_when_issued_lt_all: 20711916
Issued LT one: 17641716
rob_not_full_when_issued_lt_one: 15571886
 Total stall cycles: 65969539
 Total load stall cycles: 188182539488151
CPU 0 NUM of IPS identified critical: 0
CPU 0 Num of Load IPs stalling ROB: 29789
Threshold modification factor: -1
Max PIST entries: 64
Min PIST entries: 0
Avg PIST entries: 32
Trouble in retire width: 0.913752
MaC = Marked as critical.
lt_50_percent_before_Mac: 0
gt_90_percent_before_Mac: 0
gt_75_percent_before_Mac: 0
gt_50_percent_before_Mac: 0
stall_proportion_bin_same_before_after: 0
stall_proportion_bin_lower_before_after: 0
stall_proportion_bin_upper_before_after: 0
average_stall_proportion_before: -nan
average_stall_proportion_after: -nan
Critical IP stalls, total frequency: 0
Non-critical IP stalls, total frequency: 3466187
Total Freq all stalling IPs: 3466187
stat_90_percent_critical_ip_stalls_freq: 3119639
stat_90_percent_non_critical_ip_stalls_freq: 346548
Critical_IP_ROB_Stalls_Bucket_0: 0
Non-critical_IP_ROB_Stalls_Bucket_0: 1711943
Critical_IP_ROB_Stalls_Bucket_1: 0
Non-critical_IP_ROB_Stalls_Bucket_1: 940443
Critical_IP_ROB_Stalls_Bucket_2: 0
Non-critical_IP_ROB_Stalls_Bucket_2: 433410
Critical_IP_ROB_Stalls_Bucket_3: 0
Non-critical_IP_ROB_Stalls_Bucket_3: 141462
Critical_IP_ROB_Stalls_Bucket_4: 0
Non-critical_IP_ROB_Stalls_Bucket_4: 52873
Critical_IP_ROB_Stalls_Bucket_5: 0
Non-critical_IP_ROB_Stalls_Bucket_5: 42530
Critical_IP_ROB_Stalls_Bucket_6: 0
Non-critical_IP_ROB_Stalls_Bucket_6: 143526
0 => IPs accounting for >50 percent of stalls, 1 => 55, 2 => 60, 3 => 65 and so on till 90.
percent50: 50.0578 num IPs:  166
percent55: 55.0545 num IPs: 232
percent60: 60.0155 num IPs: 312
percent65: 65.0367 num IPs: 421
percent70: 70.0195 num IPs: 575
percent75: 75.0119 num IPs: 801
percent80: 80.0059 num IPs: 1139
percent85: 85.003 num IPs: 1655
percent90: 90.0022 num IPs: 2563
Critical_ROB_Stalls_Percent_0_Bucket_0: 752386
Non-critical_ROB_Stalls_Percent_0_Bucket_0: 959557
Critical_ROB_Stalls_Percent_0_Bucket_1: 491149
Non-critical_ROB_Stalls_Percent_0_Bucket_1: 449294
Critical_ROB_Stalls_Percent_0_Bucket_2: 232502
Non-critical_ROB_Stalls_Percent_0_Bucket_2: 200908
Critical_ROB_Stalls_Percent_0_Bucket_3: 81015
Non-critical_ROB_Stalls_Percent_0_Bucket_3: 60447
Critical_ROB_Stalls_Percent_0_Bucket_4: 32407
Non-critical_ROB_Stalls_Percent_0_Bucket_4: 20466
Critical_ROB_Stalls_Percent_0_Bucket_5: 31161
Non-critical_ROB_Stalls_Percent_0_Bucket_5: 11369
Critical_ROB_Stalls_Percent_0_Bucket_6: 114477
Non-critical_ROB_Stalls_Percent_0_Bucket_6: 29049
Critical_ROB_Stalls_Percent_1_Bucket_0: 843230
Non-critical_ROB_Stalls_Percent_1_Bucket_0: 868713
Critical_ROB_Stalls_Percent_1_Bucket_1: 536895
Non-critical_ROB_Stalls_Percent_1_Bucket_1: 403548
Critical_ROB_Stalls_Percent_1_Bucket_2: 260148
Non-critical_ROB_Stalls_Percent_1_Bucket_2: 173262
Critical_ROB_Stalls_Percent_1_Bucket_3: 85437
Non-critical_ROB_Stalls_Percent_1_Bucket_3: 56025
Critical_ROB_Stalls_Percent_1_Bucket_4: 33889
Non-critical_ROB_Stalls_Percent_1_Bucket_4: 18984
Critical_ROB_Stalls_Percent_1_Bucket_5: 32202
Non-critical_ROB_Stalls_Percent_1_Bucket_5: 10328
Critical_ROB_Stalls_Percent_1_Bucket_6: 116491
Non-critical_ROB_Stalls_Percent_1_Bucket_6: 27035
Critical_ROB_Stalls_Percent_2_Bucket_0: 924658
Non-critical_ROB_Stalls_Percent_2_Bucket_0: 787285
Critical_ROB_Stalls_Percent_2_Bucket_1: 587358
Non-critical_ROB_Stalls_Percent_2_Bucket_1: 353085
Critical_ROB_Stalls_Percent_2_Bucket_2: 285567
Non-critical_ROB_Stalls_Percent_2_Bucket_2: 147843
Critical_ROB_Stalls_Percent_2_Bucket_3: 92753
Non-critical_ROB_Stalls_Percent_2_Bucket_3: 48709
Critical_ROB_Stalls_Percent_2_Bucket_4: 36793
Non-critical_ROB_Stalls_Percent_2_Bucket_4: 16080
Critical_ROB_Stalls_Percent_2_Bucket_5: 33704
Non-critical_ROB_Stalls_Percent_2_Bucket_5: 8826
Critical_ROB_Stalls_Percent_2_Bucket_6: 119416
Non-critical_ROB_Stalls_Percent_2_Bucket_6: 24110
Critical_ROB_Stalls_Percent_3_Bucket_0: 1009851
Non-critical_ROB_Stalls_Percent_3_Bucket_0: 702092
Critical_ROB_Stalls_Percent_3_Bucket_1: 636537
Non-critical_ROB_Stalls_Percent_3_Bucket_1: 303906
Critical_ROB_Stalls_Percent_3_Bucket_2: 308105
Non-critical_ROB_Stalls_Percent_3_Bucket_2: 125305
Critical_ROB_Stalls_Percent_3_Bucket_3: 101139
Non-critical_ROB_Stalls_Percent_3_Bucket_3: 40323
Critical_ROB_Stalls_Percent_3_Bucket_4: 39471
Non-critical_ROB_Stalls_Percent_3_Bucket_4: 13402
Critical_ROB_Stalls_Percent_3_Bucket_5: 34872
Non-critical_ROB_Stalls_Percent_3_Bucket_5: 7658
Critical_ROB_Stalls_Percent_3_Bucket_6: 124320
Non-critical_ROB_Stalls_Percent_3_Bucket_6: 19206
Critical_ROB_Stalls_Percent_4_Bucket_0: 1098615
Non-critical_ROB_Stalls_Percent_4_Bucket_0: 613328
Critical_ROB_Stalls_Percent_4_Bucket_1: 684066
Non-critical_ROB_Stalls_Percent_4_Bucket_1: 256377
Critical_ROB_Stalls_Percent_4_Bucket_2: 331170
Non-critical_ROB_Stalls_Percent_4_Bucket_2: 102240
Critical_ROB_Stalls_Percent_4_Bucket_3: 108417
Non-critical_ROB_Stalls_Percent_4_Bucket_3: 33045
Critical_ROB_Stalls_Percent_4_Bucket_4: 41872
Non-critical_ROB_Stalls_Percent_4_Bucket_4: 11001
Critical_ROB_Stalls_Percent_4_Bucket_5: 36342
Non-critical_ROB_Stalls_Percent_4_Bucket_5: 6188
Critical_ROB_Stalls_Percent_4_Bucket_6: 126526
Non-critical_ROB_Stalls_Percent_4_Bucket_6: 17000
Critical_ROB_Stalls_Percent_5_Bucket_0: 1186070
Non-critical_ROB_Stalls_Percent_5_Bucket_0: 525873
Critical_ROB_Stalls_Percent_5_Bucket_1: 729455
Non-critical_ROB_Stalls_Percent_5_Bucket_1: 210988
Critical_ROB_Stalls_Percent_5_Bucket_2: 355395
Non-critical_ROB_Stalls_Percent_5_Bucket_2: 78015
Critical_ROB_Stalls_Percent_5_Bucket_3: 114855
Non-critical_ROB_Stalls_Percent_5_Bucket_3: 26607
Critical_ROB_Stalls_Percent_5_Bucket_4: 43453
Non-critical_ROB_Stalls_Percent_5_Bucket_4: 9420
Critical_ROB_Stalls_Percent_5_Bucket_5: 37416
Non-critical_ROB_Stalls_Percent_5_Bucket_5: 5114
Critical_ROB_Stalls_Percent_5_Bucket_6: 133409
Non-critical_ROB_Stalls_Percent_5_Bucket_6: 10117
Critical_ROB_Stalls_Percent_6_Bucket_0: 1278319
Non-critical_ROB_Stalls_Percent_6_Bucket_0: 433624
Critical_ROB_Stalls_Percent_6_Bucket_1: 776422
Non-critical_ROB_Stalls_Percent_6_Bucket_1: 164021
Critical_ROB_Stalls_Percent_6_Bucket_2: 375180
Non-critical_ROB_Stalls_Percent_6_Bucket_2: 58230
Critical_ROB_Stalls_Percent_6_Bucket_3: 122807
Non-critical_ROB_Stalls_Percent_6_Bucket_3: 18655
Critical_ROB_Stalls_Percent_6_Bucket_4: 45898
Non-critical_ROB_Stalls_Percent_6_Bucket_4: 6975
Critical_ROB_Stalls_Percent_6_Bucket_5: 38644
Non-critical_ROB_Stalls_Percent_6_Bucket_5: 3886
Critical_ROB_Stalls_Percent_6_Bucket_6: 135883
Non-critical_ROB_Stalls_Percent_6_Bucket_6: 7643
Critical_ROB_Stalls_Percent_7_Bucket_0: 1364143
Non-critical_ROB_Stalls_Percent_7_Bucket_0: 347800
Critical_ROB_Stalls_Percent_7_Bucket_1: 826179
Non-critical_ROB_Stalls_Percent_7_Bucket_1: 114264
Critical_ROB_Stalls_Percent_7_Bucket_2: 397793
Non-critical_ROB_Stalls_Percent_7_Bucket_2: 35617
Critical_ROB_Stalls_Percent_7_Bucket_3: 130855
Non-critical_ROB_Stalls_Percent_7_Bucket_3: 10607
Critical_ROB_Stalls_Percent_7_Bucket_4: 48623
Non-critical_ROB_Stalls_Percent_7_Bucket_4: 4250
Critical_ROB_Stalls_Percent_7_Bucket_5: 40274
Non-critical_ROB_Stalls_Percent_7_Bucket_5: 2256
Critical_ROB_Stalls_Percent_7_Bucket_6: 138495
Non-critical_ROB_Stalls_Percent_7_Bucket_6: 5031
Critical_ROB_Stalls_Percent_8_Bucket_0: 1467438
Non-critical_ROB_Stalls_Percent_8_Bucket_0: 244505
Critical_ROB_Stalls_Percent_8_Bucket_1: 871101
Non-critical_ROB_Stalls_Percent_8_Bucket_1: 69342
Critical_ROB_Stalls_Percent_8_Bucket_2: 413172
Non-critical_ROB_Stalls_Percent_8_Bucket_2: 20238
Critical_ROB_Stalls_Percent_8_Bucket_3: 135280
Non-critical_ROB_Stalls_Percent_8_Bucket_3: 6182
Critical_ROB_Stalls_Percent_8_Bucket_4: 50648
Non-critical_ROB_Stalls_Percent_8_Bucket_4: 2225
Critical_ROB_Stalls_Percent_8_Bucket_5: 41397
Non-critical_ROB_Stalls_Percent_8_Bucket_5: 1133
Critical_ROB_Stalls_Percent_8_Bucket_6: 140603
Non-critical_ROB_Stalls_Percent_8_Bucket_6: 2923
Average ROB occupancy Load Stall Begin: 65.3558
Average ROB occupancy Load Stall End: 74.4264
Min ROB occupancy Load Stall Begin: 1
Max ROB occupancy Load Stall Begin: 352
Min ROB occupancy Load Stall End: 1
Max ROB occupancy Load Stall End: 352
Average ROB occupancy Critical Load Stall Begin: -nan
Average ROB occupancy Critical Load Stall End: -nan
Min ROB occupancy Critical Load Stall Begin: 400
Max ROB occupancy Critical Load Stall Begin: 0
Min ROB occupancy Critical Load Stall End: 400
Max ROB occupancy Critical Load Stall End: 0
 ROB Load Stall Begin Bucket Count 0: 1971806
 ROB Load Stall End Bucket Count 0: 1711943
 ROB Critical Load Stall Begin Bucket Count 0: 0
 ROB Critical Load Stall End Bucket Count 0: 0
 ROB Load Stall Begin Bucket Count 1: 833341
 ROB Load Stall End Bucket Count 1: 940443
 ROB Critical Load Stall Begin Bucket Count 1: 0
 ROB Critical Load Stall End Bucket Count 1: 0
 ROB Load Stall Begin Bucket Count 2: 335016
 ROB Load Stall End Bucket Count 2: 433410
 ROB Critical Load Stall Begin Bucket Count 2: 0
 ROB Critical Load Stall End Bucket Count 2: 0
 ROB Load Stall Begin Bucket Count 3: 104302
 ROB Load Stall End Bucket Count 3: 141462
 ROB Critical Load Stall Begin Bucket Count 3: 0
 ROB Critical Load Stall End Bucket Count 3: 0
 ROB Load Stall Begin Bucket Count 4: 46973
 ROB Load Stall End Bucket Count 4: 52873
 ROB Critical Load Stall Begin Bucket Count 4: 0
 ROB Critical Load Stall End Bucket Count 4: 0
 ROB Load Stall Begin Bucket Count 5: 43650
 ROB Load Stall End Bucket Count 5: 42530
 ROB Critical Load Stall Begin Bucket Count 5: 0
 ROB Critical Load Stall End Bucket Count 5: 0
 ROB Load Stall Begin Bucket Count 6: 131099
 ROB Load Stall End Bucket Count 6: 143526
 ROB Critical Load Stall Begin Bucket Count 6: 0
 ROB Critical Load Stall End Bucket Count 6: 0
PIST Tag Read Accesses: 2476736
PIST Read Accesses: 1238368
PIST Tag Write Accesses: 2476736
PIST Write Accesses: 1238368
Criticality detector called times: 2587738
Max global_stall_cycles_count: 3669397
Threshold Modified: 1 times, factor: -1
Sturdy critical IP cache stats: 
 Unused entries: 0
CIC Tag Read Accesses: 0
CIC Read Accesses: 0
CIC Tag Write Accesses: 0
CIC Write Accesses: 0
Wobbly critical IP cache stats: 
 Unused entries: 0
CIC Tag Read Accesses: 91380272
CIC Read Accesses: 0
CIC Tag Write Accesses: 28058
CIC Write Accesses: 0
ITLB TOTAL     ACCESS:    9443989  HIT:    9219186  MISS:     224803  HIT %:    97.6196  MISS %:    2.38038   MPKI: 4.49606
ITLB LOAD TRANSLATION ACCESS:    8707357  HIT:    8661867  MISS:      45490  HIT %:    99.4776  MISS %:   0.522432   MPKI: 0.9098
ITLB TRANSLATION FROM L1D PREFETCHER ACCESS:     736632  HIT:     557319  MISS:     179313  HIT %:    75.6577  MISS %:    24.3423   MPKI: 3.58626
ITLB PREFETCH  REQUESTED:          0  ISSUED:          0  USEFUL:     136256  USELESS:      43062
ITLB USEFUL LOAD PREFETCHES:     136256 PREFETCH ISSUED TO LOWER LEVEL:          0  ACCURACY: inf
ITLB TIMELY PREFETCHES:     136256 LATE PREFETCHES: 1196 DROPPED PREFETCHES: 1102
ITLB PREFETCHES SAME FILL-ORIGIN LEVEL: 0 DIFFERENT FILL-ORIGIN LEVEL: 0
ITLB AVERAGE MISS LATENCY: 191857 cycles
ITLB RQ	ACCESS:   11707602	FORWARD:          0	MERGED:    2240445	TO_CACHE:    9467157

DTLB TOTAL     ACCESS:   11111379  HIT:   10586716  MISS:     524663  HIT %:    95.2781  MISS %:    4.72185   MPKI: 10.4933
DTLB LOAD TRANSLATION ACCESS:   11111379  HIT:   10586716  MISS:     524663  HIT %:    95.2781  MISS %:    4.72185   MPKI: 10.4933
DTLB PREFETCH  REQUESTED:          0  ISSUED:          0  USEFUL:          0  USELESS:          0
DTLB USEFUL LOAD PREFETCHES:          0 PREFETCH ISSUED TO LOWER LEVEL:          0  ACCURACY: -nan
DTLB TIMELY PREFETCHES:          0 LATE PREFETCHES: 0 DROPPED PREFETCHES: 0
DTLB PREFETCHES SAME FILL-ORIGIN LEVEL: 0 DIFFERENT FILL-ORIGIN LEVEL: 0
DTLB AVERAGE MISS LATENCY: 9.89545 cycles
DTLB RQ	ACCESS:   14245778	FORWARD:          0	MERGED:    3107066	TO_CACHE:   11138712

STLB TOTAL     ACCESS:    1131824  HIT:    1125121  MISS:       6703  HIT %:    99.4078  MISS %:    0.59223   MPKI: 0.13406
STLB LOAD TRANSLATION ACCESS:     568957  HIT:     562636  MISS:       6321  HIT %:     98.889  MISS %:    1.11098   MPKI: 0.12642
STLB TRANSLATION FROM L1D PREFETCHER ACCESS:     562867  HIT:     562485  MISS:        382  HIT %:    99.9321  MISS %:  0.0678668   MPKI: 0.00764
STLB PREFETCH  REQUESTED:          0  ISSUED:          0  USEFUL:        254  USELESS:        116
STLB USEFUL LOAD PREFETCHES:        254 PREFETCH ISSUED TO LOWER LEVEL:          0  ACCURACY: inf
STLB TIMELY PREFETCHES:        254 LATE PREFETCHES: 0 DROPPED PREFETCHES: 1102
STLB PREFETCHES SAME FILL-ORIGIN LEVEL: 0 DIFFERENT FILL-ORIGIN LEVEL: 0
STLB AVERAGE MISS LATENCY: 83.3133 cycles
STLB RQ	ACCESS:    1254226	FORWARD:          0	MERGED:     121300	TO_CACHE:    1132926

STLB Hit, L1D data hit: 0
STLB Hit, L2C data hit: 0
STLB Hit, LLC data hit: 0
STLB Hit, LLC data miss: 0
STLB STLB hints to L2: 0
L1D TOTAL     ACCESS:   14228274  HIT:   13200219  MISS:    1028055  HIT %:    92.7746  MISS %:    7.22544   MPKI: 20.5611
L1D LOAD      ACCESS:    8877357  HIT:    8124844  MISS:     752513  HIT %:    91.5232  MISS %:    8.47677   MPKI: 15.0503
L1D RFO       ACCESS:    4882067  HIT:    4763367  MISS:     118700  HIT %:    97.5687  MISS %:    2.43135   MPKI: 2.374
L1D PREFETCH  ACCESS:     468850  HIT:     312008  MISS:     156842  HIT %:    66.5475  MISS %:    33.4525   MPKI: 3.13684
L1D PREFETCH  REQUESTED:    1007346  ISSUED:    1007346  USEFUL:      38745  USELESS:     117889
L1D USEFUL LOAD PREFETCHES:      38745 PREFETCH ISSUED TO LOWER LEVEL:     165941  ACCURACY: 23.3487
L1D TIMELY PREFETCHES:      38745 LATE PREFETCHES: 9084 DROPPED PREFETCHES: 0
L1D PREFETCHES SAME FILL-ORIGIN LEVEL: 165941 DIFFERENT FILL-ORIGIN LEVEL: 0
L1D AVERAGE MISS LATENCY: 497762 cycles
L1D RQ	ACCESS:   13247687	FORWARD:          0	MERGED:    4155422	TO_CACHE:    8951913
L1D WQ	ACCESS:    5473943	FORWARD:     140382	MERGED:     180078	TO_CACHE:    5293865
L1D PQ	ACCESS:     503688	FORWARD:          0	MERGED:          0	TO_CACHE:     503658

L1D UNIQUE REGIONS ACCESSED: 0
L1D REGIONS CONFLICTS: 0
L1D Cross Page Prefetch Requests: 0
L1D Same Page Prefetch Requests: 1025408
L1D ROI Sum of L1D PQ occupancy: 6482263
L1D PREFETCHES PUSHED FROM L2C: 0
L1I TOTAL     ACCESS:   11662456  HIT:   10581691  MISS:    1080765  HIT %:     90.733  MISS %:    9.26704   MPKI: 21.6153
L1I LOAD      ACCESS:    9925117  HIT:    9828374  MISS:      96743  HIT %:    99.0253  MISS %:   0.974729   MPKI: 1.93486
L1I PREFETCH  ACCESS:    1737339  HIT:     753317  MISS:     984022  HIT %:    43.3604  MISS %:    56.6396   MPKI: 19.6804
L1I PREFETCH  REQUESTED:    1814066  ISSUED:    1812051  USEFUL:     701335  USELESS:     282802
L1I USEFUL LOAD PREFETCHES:     701335 PREFETCH ISSUED TO LOWER LEVEL:     993291  ACCURACY: 70.6072
L1I TIMELY PREFETCHES:     701335 LATE PREFETCHES: 9269 DROPPED PREFETCHES: 2239
L1I PREFETCHES SAME FILL-ORIGIN LEVEL: 993291 DIFFERENT FILL-ORIGIN LEVEL: 0
L1I AVERAGE MISS LATENCY: 300977 cycles
L1I RQ	ACCESS:   14729521	FORWARD:          0	MERGED:    4793175	TO_CACHE:    9936346
L1I PQ	ACCESS:    1812051	FORWARD:          0	MERGED:      40795	TO_CACHE:    1771256

BTB TOTAL     ACCESS:    8519581  HIT:    7693788  MISS:     825793  HIT %:    90.3071  MISS %:    9.69288   MPKI: 16.5159
BTB BRANCH_DIRECT_JUMP	ACCESS:     510116  HIT:     502542  MISS:       7574
BTB BRANCH_INDIRECT	ACCESS:     225730  HIT:     169070  MISS:      56660
BTB BRANCH_CONDITIONAL	ACCESS:    5216028  HIT:    5189632  MISS:      26396
BTB BRANCH_DIRECT_CALL	ACCESS:     600746  HIT:     593897  MISS:       6849
BTB BRANCH_INDIRECT_CALL	ACCESS:     682990  HIT:     527153  MISS:     155837
BTB BRANCH_RETURN	ACCESS:    1283971  HIT:     711494  MISS:     572477
BTB BRANCH_OTHER ACCESS:          0  HIT:          0  MISS:          0

L2C TOTAL     ACCESS:    2351147  HIT:    1965442  MISS:     385705  HIT %:     83.595  MISS %:     16.405   MPKI: 7.7141
L2C LOAD      ACCESS:     830900  HIT:     655111  MISS:     175789  HIT %:    78.8435  MISS %:    21.1565   MPKI: 3.51578
L2C DATA LOAD MPKI: 3.24364
L2C INSTRUCTION LOAD MPKI: 0.27214
L2C RFO       ACCESS:     118682  HIT:      16205  MISS:     102477  HIT %:    13.6541  MISS %:    86.3459   MPKI: 2.04954
L2C PREFETCH  ACCESS:    1222446  HIT:    1120369  MISS:     102077  HIT %:    91.6498  MISS %:    8.35023   MPKI: 2.04154
L2C DATA PREFETCH MPKI: 1.41034
L2C INSTRUCTION PREFETCH MPKI: 0.6312
L2C WRITEBACK ACCESS:     170994  HIT:     168195  MISS:       2799  HIT %:    98.3631  MISS %:     1.6369   MPKI: 0.05598
L2C LOAD TRANSLATION ACCESS:       6606  HIT:       4296  MISS:       2310  HIT %:    65.0318  MISS %:    34.9682   MPKI: 0.0462
L2C TRANSLATION FROM L1D PREFETCHER ACCESS:       1519  HIT:       1266  MISS:        253  HIT %:    83.3443  MISS %:    16.6557   MPKI: 0.00506
L2C PREFETCH  REQUESTED:      83877  ISSUED:      83877  USEFUL:      11661  USELESS:      92655
L2C USEFUL LOAD PREFETCHES:      11661 PREFETCH ISSUED TO LOWER LEVEL:     102495  ACCURACY: 11.3771
L2C TIMELY PREFETCHES:      11661 LATE PREFETCHES: 418 DROPPED PREFETCHES: 0
L2C PREFETCHES SAME FILL-ORIGIN LEVEL: 10417 DIFFERENT FILL-ORIGIN LEVEL: 0
L2C AVERAGE MISS LATENCY: 89.3459 cycles
L2C RQ	ACCESS:     957713	FORWARD:          0	MERGED:          0	TO_CACHE:     957707
L2C WQ	ACCESS:     170994	FORWARD:          7	MERGED:          0	TO_CACHE:     170994
L2C PQ	ACCESS:    1243109	FORWARD:          0	MERGED:      19436	TO_CACHE:    1223672

L2C Instructions Evicting Data 31561
L2C Translations Evicting Data 1806
L2C Data Evicting Data 298877
L2C Instructions Evicting Instructions 12937
L2C Translations Evicting Instructions 724
L2C Data Evicting Instructions 34426
L2C Instructions Evicting Translations 669
L2C Translations Evicting Translations 33
L2C Data Evicting Translations 1873
L2C Dense regions hint from L2: 0
PSCL5 TOTAL     ACCESS:       7805  HIT:       7805  MISS:          0  HIT %:        100  MISS %:          0   MPKI: 0
PSCL5 LOAD TRANSLATION ACCESS:       6321  HIT:       6321  MISS:          0  HIT %:        100  MISS %:          0   MPKI: 0
PSCL5 TRANSLATION FROM L1D PREFETCHER ACCESS:       1484  HIT:       1484  MISS:          0  HIT %:        100  MISS %:          0   MPKI: 0
PSCL5 PREFETCH  REQUESTED:          0  ISSUED:          0  USEFUL:          0  USELESS:          0
PSCL5 USEFUL LOAD PREFETCHES:          0 PREFETCH ISSUED TO LOWER LEVEL:          0  ACCURACY: -nan
PSCL5 TIMELY PREFETCHES:          0 LATE PREFETCHES: 0 DROPPED PREFETCHES: 0
PSCL5 PREFETCHES SAME FILL-ORIGIN LEVEL: 0 DIFFERENT FILL-ORIGIN LEVEL: 0

PSCL4 TOTAL     ACCESS:       7805  HIT:       7805  MISS:          0  HIT %:        100  MISS %:          0   MPKI: 0
PSCL4 LOAD TRANSLATION ACCESS:       6321  HIT:       6321  MISS:          0  HIT %:        100  MISS %:          0   MPKI: 0
PSCL4 TRANSLATION FROM L1D PREFETCHER ACCESS:       1484  HIT:       1484  MISS:          0  HIT %:        100  MISS %:          0   MPKI: 0
PSCL4 PREFETCH  REQUESTED:          0  ISSUED:          0  USEFUL:          0  USELESS:          0
PSCL4 USEFUL LOAD PREFETCHES:          0 PREFETCH ISSUED TO LOWER LEVEL:          0  ACCURACY: -nan
PSCL4 TIMELY PREFETCHES:          0 LATE PREFETCHES: 0 DROPPED PREFETCHES: 0
PSCL4 PREFETCHES SAME FILL-ORIGIN LEVEL: 0 DIFFERENT FILL-ORIGIN LEVEL: 0

PSCL3 TOTAL     ACCESS:       7752  HIT:       7744  MISS:          8  HIT %:    99.8968  MISS %:   0.103199   MPKI: 0.00016
PSCL3 LOAD TRANSLATION ACCESS:       6272  HIT:       6264  MISS:          8  HIT %:    99.8724  MISS %:   0.127551   MPKI: 0.00016
PSCL3 TRANSLATION FROM L1D PREFETCHER ACCESS:       1480  HIT:       1480  MISS:          0  HIT %:        100  MISS %:          0   MPKI: 0
PSCL3 PREFETCH  REQUESTED:          0  ISSUED:          0  USEFUL:          0  USELESS:          0
PSCL3 USEFUL LOAD PREFETCHES:          0 PREFETCH ISSUED TO LOWER LEVEL:          0  ACCURACY: -nan
PSCL3 TIMELY PREFETCHES:          0 LATE PREFETCHES: 0 DROPPED PREFETCHES: 0
PSCL3 PREFETCHES SAME FILL-ORIGIN LEVEL: 0 DIFFERENT FILL-ORIGIN LEVEL: 0

PSCL2 TOTAL     ACCESS:       7783  HIT:       7487  MISS:        296  HIT %:    96.1968  MISS %:    3.80316   MPKI: 0.00592
PSCL2 LOAD TRANSLATION ACCESS:       6333  HIT:       6037  MISS:        296  HIT %:    95.3261  MISS %:    4.67393   MPKI: 0.00592
PSCL2 TRANSLATION FROM L1D PREFETCHER ACCESS:       1450  HIT:       1450  MISS:          0  HIT %:        100  MISS %:          0   MPKI: 0
PSCL2 PREFETCH  REQUESTED:          0  ISSUED:          0  USEFUL:          0  USELESS:          0
PSCL2 USEFUL LOAD PREFETCHES:          0 PREFETCH ISSUED TO LOWER LEVEL:          0  ACCURACY: -nan
PSCL2 TIMELY PREFETCHES:          0 LATE PREFETCHES: 0 DROPPED PREFETCHES: 0
PSCL2 PREFETCHES SAME FILL-ORIGIN LEVEL: 0 DIFFERENT FILL-ORIGIN LEVEL: 0

LLC TOTAL     ACCESS:     509793  HIT:     346316  MISS:     163477  HIT %:    67.9327  MISS %:    32.0673   MPKI: 3.26954
LLC LOAD      ACCESS:     175370  HIT:     136933  MISS:      38437  HIT %:    78.0823  MISS %:    21.9177   MPKI: 0.76874
LLC RFO       ACCESS:     102476  HIT:       7143  MISS:      95333  HIT %:    6.97041  MISS %:    93.0296   MPKI: 1.90666
LLC PREFETCH  ACCESS:     102495  HIT:      78630  MISS:      23865  HIT %:    76.7159  MISS %:    23.2841   MPKI: 0.4773
LLC WRITEBACK ACCESS:     126889  HIT:     121841  MISS:       5048  HIT %:    96.0217  MISS %:    3.97828   MPKI: 0.10096
LLC LOAD TRANSLATION ACCESS:       2310  HIT:       1590  MISS:        720  HIT %:    68.8312  MISS %:    31.1688   MPKI: 0.0144
LLC TRANSLATION FROM L1D PREFETCHER ACCESS:        253  HIT:        179  MISS:         74  HIT %:     70.751  MISS %:     29.249   MPKI: 0.00148
LLC PREFETCH  REQUESTED:          0  ISSUED:          0  USEFUL:       2954  USELESS:      28757
LLC USEFUL LOAD PREFETCHES:       2954 PREFETCH ISSUED TO LOWER LEVEL:      23865  ACCURACY: 12.378
LLC TIMELY PREFETCHES:       2954 LATE PREFETCHES: 0 DROPPED PREFETCHES: 0
LLC PREFETCHES SAME FILL-ORIGIN LEVEL: 0 DIFFERENT FILL-ORIGIN LEVEL: 0
LLC AVERAGE MISS LATENCY: 140.274 cycles
LLC RQ	ACCESS:     280411	FORWARD:          0	MERGED:          0	TO_CACHE:     280409
LLC WQ	ACCESS:     126889	FORWARD:          2	MERGED:          0	TO_CACHE:     126889
LLC PQ	ACCESS:     102495	FORWARD:          0	MERGED:          0	TO_CACHE:     102495

LLC Dense regions hint to LLC: 0

RAW hits: 1387132
Loads Generated: 14634820
Loads sent to L1D: 13247687
Stores Generated: 5473941
Stores sent to L1D: 5473943
Major fault: 0 Minor fault: 5379
Allocated PAGES: 5379
I-Shadow cache 408 bytes
Touched + WorthPF tables 6144 bytes 
MMA filter 174 bytes 
FNL filter 272 bytes 
TOTAL PREFETCHER STORAGE SIZE: 25174 bytes
CPU 0 L1I next line prefetcher final stats

stream: 
stream:times selected: 2056180
stream:pref_filled: 239794
stream:pref_useful: 36682
stream:pref_late: 4294
stream:misses: 67488
stream:misses_by_poll: 0

CS: 
CS:times selected: 155501
CS:pref_filled: 25550
CS:pref_useful: 17359
CS:pref_late: 3850
CS:misses: 22860
CS:misses_by_poll: 19

CPLX: 
CPLX:times selected: 1875099
CPLX:pref_filled: 100054
CPLX:pref_useful: 9540
CPLX:pref_late: 832
CPLX:misses: 231400
CPLX:misses_by_poll: 31

NL_L1: 
NL:times selected: 13516
NL:pref_filled: 2612
NL:pref_useful: 1085
NL:pref_late: 45
NL:misses: 2754
NL:misses_by_poll: 0

total selections: 4100296
total_filled: 156842
total_useful: 38745
total_late: 10653
total_polluted: 50
total_misses_after_warmup: 827071
conflicts: 2596638
Degree Incremented Times: 0
Degree Decremented Times: 181411

L1 IP Table Write Accesses: 5718752
L1 IP Table Read Accesses: 3122114
L1 RST Write Accesses: 1352829
L1 RST Read Accesses: 2705658
L1 CSPT Write Accesses: 1352829
L1 CSPT Read Accesses: 2557950
L1 RR Filter Tag Write Accesses: 503688
L1 RR Filter Tag Read Accesses: 27502549
L1 IP Table Tag Write Accesses: 8951915
L1 IP Table Tag Read Accesses: 8951915
L1 RST Tag Write Accesses: 0
L1 RST Tag Read Accesses: 11655406
L1 RR Filter Write Accesses: 0
L1 RR Filter Read Accesses: 972373
test: 1003658
L2 IP Table Read Accesses: 2406111
L2 IP Table Write Accesses: 3398238
L2 IP Table Tag Read Accesses: 1900592
L2 IP Table Tag Write Accesses: 1900592

DRAM Statistics
 CHANNEL 0
 RQ ROW_BUFFER_HIT:      50101  ROW_BUFFER_MISS:     108325
 DBUS_CONGESTED:        143
 WQ ROW_BUFFER_HIT:      15393  ROW_BUFFER_MISS:      72195  FULL:          0

 AVG_CONGESTED_CYCLE: 4
 All warmup complete: 2
Channel 0 Bank busy for read cycles: 0
Channel 0 Bank busy for write cycles: 0
Channel 0
Rank 0
0banks busy for read cycles: 58869631
0banks busy for write cycles: 32176
1banks busy for read cycles: 9239921
1banks busy for write cycles: 4383316
2banks busy for read cycles: 2251129
2banks busy for write cycles: 1375428
3banks busy for read cycles: 615529
3banks busy for write cycles: 599845
4banks busy for read cycles: 200702
4banks busy for write cycles: 320954
5banks busy for read cycles: 119815
5banks busy for write cycles: 201258
6banks busy for read cycles: 120876
6banks busy for write cycles: 154262
7banks busy for read cycles: 69796
7banks busy for write cycles: 147943
8banks busy for read cycles: 70912
8banks busy for write cycles: 418437

CPU 0 Branch Prediction Accuracy: 98.6482% MPKI: 3.15508 Average ROB Occupancy at Mispredict: 54.7924
Branch types
NOT_BRANCH: 38329454 76.6589%
BRANCH_DIRECT_JUMP: 510116 1.02023%
BRANCH_INDIRECT: 225730 0.45146%
BRANCH_CONDITIONAL: 8366707 16.7334%
BRANCH_DIRECT_CALL: 600746 1.20149%
BRANCH_INDIRECT_CALL: 682990 1.36598%
BRANCH_RETURN: 1283971 2.56794%
BRANCH_OTHER: 0 0%

DRAM PAGES: 1048576
Allocated PAGES: 5379
