
*** ChampSim Multicore Out-of-Order Simulator ***

Warmup Instructions: 50000000
Simulation Instructions: 50000000
Number of CPUs: 1
LLC sets: 2048
LLC ways: 16
Off-chip DRAM Size: 4096 MB Channels: 1 Width: 64-bit Data Rate: 6400 MT/s
CPU 0 runs ../IPC-traces//client_004.champsimtrace.xz
.xz
BTB has LRU replacement policy
ITLB has LRU replacement policy
DTLB has LRU replacement policy
STLB has LRU replacement policy
CPU 0 L1I next line prefetcher
L1I has LRU replacement policy
L1D has LRU replacement policy
Bingo PHT WAYS: 16 and PHT_SIZE: 16384
Initialize SRRIP state for L2C
Initialize DRRIP state for LLC
Heartbeat CPU 0 instructions: 10000000 cycles: 3023816 heartbeat IPC: 3.30708 cumulative IPC: 3.30708 (Simulation time: 0 hr 3 min 37 sec) 
Heartbeat CPU 0 instructions: 20000001 cycles: 5873939 heartbeat IPC: 3.50862 cumulative IPC: 3.40487 (Simulation time: 0 hr 6 min 55 sec) 
Heartbeat CPU 0 instructions: 30000001 cycles: 8870869 heartbeat IPC: 3.33675 cumulative IPC: 3.38186 (Simulation time: 0 hr 10 min 2 sec) 
Heartbeat CPU 0 instructions: 40000001 cycles: 11863430 heartbeat IPC: 3.34162 cumulative IPC: 3.37171 (Simulation time: 0 hr 12 min 59 sec) 
Heartbeat CPU 0 instructions: 50000002 cycles: 14856223 heartbeat IPC: 3.34136 cumulative IPC: 3.36559 (Simulation time: 0 hr 15 min 50 sec) 

Warmup complete CPU 0 instructions: 50000002 cycles: 14856223 (Simulation time: 0 hr 15 min 50 sec) 

Heartbeat CPU 0 instructions: 60000000 cycles: 31036675 heartbeat IPC: 0.61803 cumulative IPC: 0.61803 (Simulation time: 0 hr 19 min 0 sec) 
Heartbeat CPU 0 instructions: 70000001 cycles: 48074737 heartbeat IPC: 0.586921 cumulative IPC: 0.602074 (Simulation time: 0 hr 22 min 25 sec) 
Heartbeat CPU 0 instructions: 80000000 cycles: 65287713 heartbeat IPC: 0.580957 cumulative IPC: 0.594866 (Simulation time: 0 hr 25 min 43 sec) 
Heartbeat CPU 0 instructions: 90000000 cycles: 81843973 heartbeat IPC: 0.604001 cumulative IPC: 0.597124 (Simulation time: 0 hr 29 min 3 sec) 
Heartbeat CPU 0 instructions: 100000002 cycles: 97805618 heartbeat IPC: 0.626502 cumulative IPC: 0.602777 (Simulation time: 0 hr 32 min 13 sec) 
Finished CPU 0 instructions: 50000000 cycles: 82949395 cumulative IPC: 0.602777 (Simulation time: 0 hr 32 min 13 sec) 

ChampSim completed all CPUs

Region of Interest Statistics

CPU 0 cumulative IPC: 0.602777 instructions: 50000000 cycles: 82949395

CPU 0 Average Load ROB stall cycles: 2.36738e+07
CPU 0 Fraction of times ROB stalled by Loads: 41.8125
CPU 0 Percentage of Load stall cycles in Total stall cycles: 3.22085e+08
Issued all: 27733257
Issued LT all: 22036957
rob_not_full_when_issued_lt_all: 21174526
Issued LT one: 16714872
rob_not_full_when_issued_lt_one: 16001137
 Total stall cycles: 67608428
 Total load stall cycles: 217756342535914
Unique Load IPs: 72894
CPU 0 NUM of IPS identified critical: 9
CPU 0 Num of Load IPs stalling ROB: 0
Threshold modification factor: 0
Trouble in retire width: -nan
MaC = Marked as critical.
lt_50_percent_before_Mac: 2
gt_90_percent_before_Mac: 1
gt_75_percent_before_Mac: 2
gt_50_percent_before_Mac: 3
stall_proportion_bin_same_before_after: 0
stall_proportion_bin_lower_before_after: 0
stall_proportion_bin_upper_before_after: 0
average_stall_proportion_before: 0.0384651
average_stall_proportion_after: 0.032828
Critical_IP_Detector_Accuracy_70: 0
Critical_IP_Detector_Accuracy_80: 0
Critical_IP_Detector_Accuracy_90: 0
Critical_IP_Detector_Coverage_70: 0
Critical_IP_Detector_Coverage_80: 0
Critical_IP_Detector_Coverage_90: 0
stat_90_percent_critical_ip_stalls_freq: 31649
stat_90_percent_non_critical_ip_stalls_freq: 18446744073709519967
AVERAGE_ROB_Occupancy_90_Percent_Critical_IP_Stalls: 11.09
AVERAGE_ROB_Occupancy_90_Percent_Non_Critical_IP_Stalls: 1.10531e-11
Critical_IP_ROB_Stalls_Bucket_0: 967
Non-critical_IP_ROB_Stalls_Bucket_0: 2419474
Critical_IP_ROB_Stalls_Bucket_1: 346
Non-critical_IP_ROB_Stalls_Bucket_1: 921750
Critical_IP_ROB_Stalls_Bucket_2: 179
Non-critical_IP_ROB_Stalls_Bucket_2: 314408
Critical_IP_ROB_Stalls_Bucket_3: 79
Non-critical_IP_ROB_Stalls_Bucket_3: 92750
Critical_IP_ROB_Stalls_Bucket_4: 21
Non-critical_IP_ROB_Stalls_Bucket_4: 31363
Critical_IP_ROB_Stalls_Bucket_5: 4
Non-critical_IP_ROB_Stalls_Bucket_5: 16244
Critical_IP_ROB_Stalls_Bucket_6: 1
Non-critical_IP_ROB_Stalls_Bucket_6: 48415
0 => IPs accounting for >50 percent of stalls, 1 => 55, 2 => 60, 3 => 65 and so on till 90.
percent50: inf num IPs:  1
percent55: inf num IPs: 1
percent60: inf num IPs: 1
percent65: inf num IPs: 1
percent70: inf num IPs: 1
percent75: inf num IPs: 1
percent80: inf num IPs: 1
percent85: inf num IPs: 1
percent90: inf num IPs: 1
Critical_ROB_Stalls_Percent_0_Bucket_0: 31644
Non-critical_ROB_Stalls_Percent_0_Bucket_0: 2388797
Critical_ROB_Stalls_Percent_0_Bucket_1: 5
Non-critical_ROB_Stalls_Percent_0_Bucket_1: 922091
Critical_ROB_Stalls_Percent_0_Bucket_2: 0
Non-critical_ROB_Stalls_Percent_0_Bucket_2: 314587
Critical_ROB_Stalls_Percent_0_Bucket_3: 0
Non-critical_ROB_Stalls_Percent_0_Bucket_3: 92829
Critical_ROB_Stalls_Percent_0_Bucket_4: 0
Non-critical_ROB_Stalls_Percent_0_Bucket_4: 31384
Critical_ROB_Stalls_Percent_0_Bucket_5: 0
Non-critical_ROB_Stalls_Percent_0_Bucket_5: 16248
Critical_ROB_Stalls_Percent_0_Bucket_6: 0
Non-critical_ROB_Stalls_Percent_0_Bucket_6: 48416
Critical_ROB_Stalls_Percent_1_Bucket_0: 31644
Non-critical_ROB_Stalls_Percent_1_Bucket_0: 2388797
Critical_ROB_Stalls_Percent_1_Bucket_1: 5
Non-critical_ROB_Stalls_Percent_1_Bucket_1: 922091
Critical_ROB_Stalls_Percent_1_Bucket_2: 0
Non-critical_ROB_Stalls_Percent_1_Bucket_2: 314587
Critical_ROB_Stalls_Percent_1_Bucket_3: 0
Non-critical_ROB_Stalls_Percent_1_Bucket_3: 92829
Critical_ROB_Stalls_Percent_1_Bucket_4: 0
Non-critical_ROB_Stalls_Percent_1_Bucket_4: 31384
Critical_ROB_Stalls_Percent_1_Bucket_5: 0
Non-critical_ROB_Stalls_Percent_1_Bucket_5: 16248
Critical_ROB_Stalls_Percent_1_Bucket_6: 0
Non-critical_ROB_Stalls_Percent_1_Bucket_6: 48416
Critical_ROB_Stalls_Percent_2_Bucket_0: 31644
Non-critical_ROB_Stalls_Percent_2_Bucket_0: 2388797
Critical_ROB_Stalls_Percent_2_Bucket_1: 5
Non-critical_ROB_Stalls_Percent_2_Bucket_1: 922091
Critical_ROB_Stalls_Percent_2_Bucket_2: 0
Non-critical_ROB_Stalls_Percent_2_Bucket_2: 314587
Critical_ROB_Stalls_Percent_2_Bucket_3: 0
Non-critical_ROB_Stalls_Percent_2_Bucket_3: 92829
Critical_ROB_Stalls_Percent_2_Bucket_4: 0
Non-critical_ROB_Stalls_Percent_2_Bucket_4: 31384
Critical_ROB_Stalls_Percent_2_Bucket_5: 0
Non-critical_ROB_Stalls_Percent_2_Bucket_5: 16248
Critical_ROB_Stalls_Percent_2_Bucket_6: 0
Non-critical_ROB_Stalls_Percent_2_Bucket_6: 48416
Critical_ROB_Stalls_Percent_3_Bucket_0: 31644
Non-critical_ROB_Stalls_Percent_3_Bucket_0: 2388797
Critical_ROB_Stalls_Percent_3_Bucket_1: 5
Non-critical_ROB_Stalls_Percent_3_Bucket_1: 922091
Critical_ROB_Stalls_Percent_3_Bucket_2: 0
Non-critical_ROB_Stalls_Percent_3_Bucket_2: 314587
Critical_ROB_Stalls_Percent_3_Bucket_3: 0
Non-critical_ROB_Stalls_Percent_3_Bucket_3: 92829
Critical_ROB_Stalls_Percent_3_Bucket_4: 0
Non-critical_ROB_Stalls_Percent_3_Bucket_4: 31384
Critical_ROB_Stalls_Percent_3_Bucket_5: 0
Non-critical_ROB_Stalls_Percent_3_Bucket_5: 16248
Critical_ROB_Stalls_Percent_3_Bucket_6: 0
Non-critical_ROB_Stalls_Percent_3_Bucket_6: 48416
Critical_ROB_Stalls_Percent_4_Bucket_0: 31644
Non-critical_ROB_Stalls_Percent_4_Bucket_0: 2388797
Critical_ROB_Stalls_Percent_4_Bucket_1: 5
Non-critical_ROB_Stalls_Percent_4_Bucket_1: 922091
Critical_ROB_Stalls_Percent_4_Bucket_2: 0
Non-critical_ROB_Stalls_Percent_4_Bucket_2: 314587
Critical_ROB_Stalls_Percent_4_Bucket_3: 0
Non-critical_ROB_Stalls_Percent_4_Bucket_3: 92829
Critical_ROB_Stalls_Percent_4_Bucket_4: 0
Non-critical_ROB_Stalls_Percent_4_Bucket_4: 31384
Critical_ROB_Stalls_Percent_4_Bucket_5: 0
Non-critical_ROB_Stalls_Percent_4_Bucket_5: 16248
Critical_ROB_Stalls_Percent_4_Bucket_6: 0
Non-critical_ROB_Stalls_Percent_4_Bucket_6: 48416
Critical_ROB_Stalls_Percent_5_Bucket_0: 31644
Non-critical_ROB_Stalls_Percent_5_Bucket_0: 2388797
Critical_ROB_Stalls_Percent_5_Bucket_1: 5
Non-critical_ROB_Stalls_Percent_5_Bucket_1: 922091
Critical_ROB_Stalls_Percent_5_Bucket_2: 0
Non-critical_ROB_Stalls_Percent_5_Bucket_2: 314587
Critical_ROB_Stalls_Percent_5_Bucket_3: 0
Non-critical_ROB_Stalls_Percent_5_Bucket_3: 92829
Critical_ROB_Stalls_Percent_5_Bucket_4: 0
Non-critical_ROB_Stalls_Percent_5_Bucket_4: 31384
Critical_ROB_Stalls_Percent_5_Bucket_5: 0
Non-critical_ROB_Stalls_Percent_5_Bucket_5: 16248
Critical_ROB_Stalls_Percent_5_Bucket_6: 0
Non-critical_ROB_Stalls_Percent_5_Bucket_6: 48416
Critical_ROB_Stalls_Percent_6_Bucket_0: 31644
Non-critical_ROB_Stalls_Percent_6_Bucket_0: 2388797
Critical_ROB_Stalls_Percent_6_Bucket_1: 5
Non-critical_ROB_Stalls_Percent_6_Bucket_1: 922091
Critical_ROB_Stalls_Percent_6_Bucket_2: 0
Non-critical_ROB_Stalls_Percent_6_Bucket_2: 314587
Critical_ROB_Stalls_Percent_6_Bucket_3: 0
Non-critical_ROB_Stalls_Percent_6_Bucket_3: 92829
Critical_ROB_Stalls_Percent_6_Bucket_4: 0
Non-critical_ROB_Stalls_Percent_6_Bucket_4: 31384
Critical_ROB_Stalls_Percent_6_Bucket_5: 0
Non-critical_ROB_Stalls_Percent_6_Bucket_5: 16248
Critical_ROB_Stalls_Percent_6_Bucket_6: 0
Non-critical_ROB_Stalls_Percent_6_Bucket_6: 48416
Critical_ROB_Stalls_Percent_7_Bucket_0: 31644
Non-critical_ROB_Stalls_Percent_7_Bucket_0: 2388797
Critical_ROB_Stalls_Percent_7_Bucket_1: 5
Non-critical_ROB_Stalls_Percent_7_Bucket_1: 922091
Critical_ROB_Stalls_Percent_7_Bucket_2: 0
Non-critical_ROB_Stalls_Percent_7_Bucket_2: 314587
Critical_ROB_Stalls_Percent_7_Bucket_3: 0
Non-critical_ROB_Stalls_Percent_7_Bucket_3: 92829
Critical_ROB_Stalls_Percent_7_Bucket_4: 0
Non-critical_ROB_Stalls_Percent_7_Bucket_4: 31384
Critical_ROB_Stalls_Percent_7_Bucket_5: 0
Non-critical_ROB_Stalls_Percent_7_Bucket_5: 16248
Critical_ROB_Stalls_Percent_7_Bucket_6: 0
Non-critical_ROB_Stalls_Percent_7_Bucket_6: 48416
Critical_ROB_Stalls_Percent_8_Bucket_0: 31644
Non-critical_ROB_Stalls_Percent_8_Bucket_0: 2388797
Critical_ROB_Stalls_Percent_8_Bucket_1: 5
Non-critical_ROB_Stalls_Percent_8_Bucket_1: 922091
Critical_ROB_Stalls_Percent_8_Bucket_2: 0
Non-critical_ROB_Stalls_Percent_8_Bucket_2: 314587
Critical_ROB_Stalls_Percent_8_Bucket_3: 0
Non-critical_ROB_Stalls_Percent_8_Bucket_3: 92829
Critical_ROB_Stalls_Percent_8_Bucket_4: 0
Non-critical_ROB_Stalls_Percent_8_Bucket_4: 31384
Critical_ROB_Stalls_Percent_8_Bucket_5: 0
Non-critical_ROB_Stalls_Percent_8_Bucket_5: 16248
Critical_ROB_Stalls_Percent_8_Bucket_6: 0
Non-critical_ROB_Stalls_Percent_8_Bucket_6: 48416
Average ROB occupancy Load Stall Begin: 45.6302
Average ROB occupancy Load Stall End: 53.1057
Min ROB occupancy Load Stall Begin: 1
Max ROB occupancy Load Stall Begin: 352
Min ROB occupancy Load Stall End: 1
Max ROB occupancy Load Stall End: 352
Average ROB occupancy Critical Load Stall Begin: 37.0143
Average ROB occupancy Critical Load Stall End: 53.7468
Min ROB occupancy Critical Load Stall Begin: 3
Max ROB occupancy Critical Load Stall Begin: 213
Min ROB occupancy Critical Load Stall End: 3
Max ROB occupancy Critical Load Stall End: 239
 ROB Load Stall Begin Bucket Count 0: 2712740
 ROB Load Stall End Bucket Count 0: 2420441
 ROB Critical Load Stall Begin Bucket Count 0: 533
 ROB Critical Load Stall End Bucket Count 0: 431
 ROB Load Stall Begin Bucket Count 1: 722521
 ROB Load Stall End Bucket Count 1: 922096
 ROB Critical Load Stall Begin Bucket Count 1: 125
 ROB Critical Load Stall End Bucket Count 1: 158
 ROB Load Stall Begin Bucket Count 2: 250241
 ROB Load Stall End Bucket Count 2: 314587
 ROB Critical Load Stall Begin Bucket Count 2: 30
 ROB Critical Load Stall End Bucket Count 2: 71
 ROB Load Stall Begin Bucket Count 3: 72949
 ROB Load Stall End Bucket Count 3: 92829
 ROB Critical Load Stall Begin Bucket Count 3: 7
 ROB Critical Load Stall End Bucket Count 3: 33
 ROB Load Stall Begin Bucket Count 4: 26587
 ROB Load Stall End Bucket Count 4: 31384
 ROB Critical Load Stall Begin Bucket Count 4: 4
 ROB Critical Load Stall End Bucket Count 4: 7
 ROB Load Stall Begin Bucket Count 5: 14711
 ROB Load Stall End Bucket Count 5: 16248
 ROB Critical Load Stall Begin Bucket Count 5: 0
 ROB Critical Load Stall End Bucket Count 5: 0
 ROB Load Stall Begin Bucket Count 6: 46252
 ROB Load Stall End Bucket Count 6: 48416
 ROB Critical Load Stall Begin Bucket Count 6: 0
 ROB Critical Load Stall End Bucket Count 6: 0
PIST Tag Read Accesses: 0
PIST Read Accesses: 0
PIST Tag Write Accesses: 0
PIST Write Accesses: 0
Criticality detector called times: 0
Max global_stall_cycles_count: 0
Threshold Modified: 0 times, factor: 0
Sturdy critical IP cache stats: 
 Unused entries: 0
CIC Tag Read Accesses: 0
CIC Read Accesses: 0
CIC Tag Write Accesses: 0
CIC Write Accesses: 0
Wobbly critical IP cache stats: 
 Unused entries: 0
CIC Tag Read Accesses: 147784002
CIC Read Accesses: 0
CIC Tag Write Accesses: 8993
CIC Write Accesses: 0
ITLB TOTAL     ACCESS:    9144857  HIT:    9051359  MISS:      93498  HIT %:    98.9776  MISS %:    1.02241   MPKI: 1.86996
ITLB LOAD TRANSLATION ACCESS:    8557906  HIT:    8508782  MISS:      49124  HIT %:     99.426  MISS %:   0.574019   MPKI: 0.98248
ITLB TRANSLATION FROM L1D PREFETCHER ACCESS:     586951  HIT:     542577  MISS:      44374  HIT %:    92.4399  MISS %:    7.56009   MPKI: 0.88748
ITLB PREFETCH  REQUESTED:          0  ISSUED:          0  USEFUL:      33963  USELESS:      10412
ITLB USEFUL LOAD PREFETCHES:      33963 PREFETCH ISSUED TO LOWER LEVEL:          0  ACCURACY: inf
ITLB TIMELY PREFETCHES:      33963 LATE PREFETCHES: 84 DROPPED PREFETCHES: 85
ITLB PREFETCHES SAME FILL-ORIGIN LEVEL: 0 DIFFERENT FILL-ORIGIN LEVEL: 0
ITLB AVERAGE MISS LATENCY: 49704.2 cycles
ITLB RQ	ACCESS:   11321557	FORWARD:          0	MERGED:    2162892	TO_CACHE:    9158665

DTLB TOTAL     ACCESS:   11886567  HIT:   11693555  MISS:     193012  HIT %:    98.3762  MISS %:    1.62378   MPKI: 3.86024
DTLB LOAD TRANSLATION ACCESS:   11886567  HIT:   11693555  MISS:     193012  HIT %:    98.3762  MISS %:    1.62378   MPKI: 3.86024
DTLB PREFETCH  REQUESTED:          0  ISSUED:          0  USEFUL:          0  USELESS:          0
DTLB USEFUL LOAD PREFETCHES:          0 PREFETCH ISSUED TO LOWER LEVEL:          0  ACCURACY: -nan
DTLB TIMELY PREFETCHES:          0 LATE PREFETCHES: 0 DROPPED PREFETCHES: 0
DTLB PREFETCHES SAME FILL-ORIGIN LEVEL: 0 DIFFERENT FILL-ORIGIN LEVEL: 0
DTLB AVERAGE MISS LATENCY: 10.3456 cycles
DTLB RQ	ACCESS:   14400367	FORWARD:          0	MERGED:    2503805	TO_CACHE:   11896562

STLB TOTAL     ACCESS:     286510  HIT:     282098  MISS:       4412  HIT %:    98.4601  MISS %:    1.53991   MPKI: 0.08824
STLB LOAD TRANSLATION ACCESS:     242052  HIT:     238290  MISS:       3762  HIT %:    98.4458  MISS %:    1.55421   MPKI: 0.07524
STLB TRANSLATION FROM L1D PREFETCHER ACCESS:      44458  HIT:      43808  MISS:        650  HIT %:    98.5379  MISS %:    1.46205   MPKI: 0.013
STLB PREFETCH  REQUESTED:          0  ISSUED:          0  USEFUL:        540  USELESS:        136
STLB USEFUL LOAD PREFETCHES:        540 PREFETCH ISSUED TO LOWER LEVEL:          0  ACCURACY: inf
STLB TIMELY PREFETCHES:        540 LATE PREFETCHES: 0 DROPPED PREFETCHES: 85
STLB PREFETCHES SAME FILL-ORIGIN LEVEL: 0 DIFFERENT FILL-ORIGIN LEVEL: 0
STLB AVERAGE MISS LATENCY: 93.3955 cycles
STLB RQ	ACCESS:     286595	FORWARD:          0	MERGED:          0	TO_CACHE:     286595

STLB Hit, L1D data hit: 0
STLB Hit, L2C data hit: 0
STLB Hit, LLC data hit: 0
STLB Hit, LLC data miss: 0
STLB STLB hints to L2: 0
L1D TOTAL     ACCESS:   14121261  HIT:   13592950  MISS:     528311  HIT %:    96.2588  MISS %:    3.74125   MPKI: 10.5662
L1D LOAD      ACCESS:    9294546  HIT:    8897341  MISS:     397205  HIT %:    95.7265  MISS %:    4.27353   MPKI: 7.9441
L1D RFO       ACCESS:    4826715  HIT:    4695609  MISS:     131106  HIT %:    97.2837  MISS %:    2.71626   MPKI: 2.62212
L1D PREFETCH  REQUESTED:          0  ISSUED:          0  USEFUL:          0  USELESS:          0
L1D USEFUL LOAD PREFETCHES:          0 PREFETCH ISSUED TO LOWER LEVEL:          0  ACCURACY: -nan
L1D TIMELY PREFETCHES:          0 LATE PREFETCHES: 0 DROPPED PREFETCHES: 0
L1D PREFETCHES SAME FILL-ORIGIN LEVEL: 0 DIFFERENT FILL-ORIGIN LEVEL: 0
L1D AVERAGE MISS LATENCY: 39.8077 cycles
L1D RQ	ACCESS:   13199848	FORWARD:          0	MERGED:    3775016	TO_CACHE:    9328021
L1D WQ	ACCESS:    5238055	FORWARD:      96811	MERGED:     165709	TO_CACHE:    5072346

L1D UNIQUE REGIONS ACCESSED: 0
L1D REGIONS CONFLICTS: 0
L1D Cross Page Prefetch Requests: 0
L1D Same Page Prefetch Requests: 0
L1D ROI Sum of L1D PQ occupancy: 0
L1D PREFETCHES PUSHED FROM L2C: 0
L1I TOTAL     ACCESS:   11242002  HIT:   10352982  MISS:     889020  HIT %:     92.092  MISS %:    7.90802   MPKI: 17.7804
L1I LOAD      ACCESS:    9790786  HIT:    9598830  MISS:     191956  HIT %:    98.0394  MISS %:    1.96058   MPKI: 3.83912
L1I PREFETCH  ACCESS:    1451216  HIT:     754152  MISS:     697064  HIT %:    51.9669  MISS %:    48.0331   MPKI: 13.9413
L1I PREFETCH  REQUESTED:    1588776  ISSUED:    1586991  USEFUL:     425497  USELESS:     271562
L1I USEFUL LOAD PREFETCHES:     425497 PREFETCH ISSUED TO LOWER LEVEL:     713303  ACCURACY: 59.6516
L1I TIMELY PREFETCHES:     425497 LATE PREFETCHES: 16239 DROPPED PREFETCHES: 162
L1I PREFETCHES SAME FILL-ORIGIN LEVEL: 713303 DIFFERENT FILL-ORIGIN LEVEL: 0
L1I AVERAGE MISS LATENCY: 1.03922e+06 cycles
L1I RQ	ACCESS:   14424021	FORWARD:          0	MERGED:    4615048	TO_CACHE:    9808973
L1I PQ	ACCESS:    1586991	FORWARD:          0	MERGED:      74407	TO_CACHE:    1512584

BTB TOTAL     ACCESS:    7750112  HIT:    6953064  MISS:     797048  HIT %:    89.7157  MISS %:    10.2843   MPKI: 15.941
BTB BRANCH_DIRECT_JUMP	ACCESS:     644555  HIT:     617941  MISS:      26614
BTB BRANCH_INDIRECT	ACCESS:     201946  HIT:     110721  MISS:      91225
BTB BRANCH_CONDITIONAL	ACCESS:    4875062  HIT:    4805966  MISS:      69096
BTB BRANCH_DIRECT_CALL	ACCESS:     564821  HIT:     520817  MISS:      44004
BTB BRANCH_INDIRECT_CALL	ACCESS:     445012  HIT:     287828  MISS:     157184
BTB BRANCH_RETURN	ACCESS:    1018716  HIT:     609791  MISS:     408925
BTB BRANCH_OTHER ACCESS:          0  HIT:          0  MISS:          0

L2C TOTAL     ACCESS:    1614222  HIT:    1320747  MISS:     293475  HIT %:    81.8194  MISS %:    18.1806   MPKI: 5.8695
L2C LOAD      ACCESS:     572913  HIT:     478017  MISS:      94896  HIT %:    83.4362  MISS %:    16.5638   MPKI: 1.89792
L2C DATA LOAD MPKI: 1.10288
L2C INSTRUCTION LOAD MPKI: 0.79504
L2C RFO       ACCESS:     131102  HIT:      50469  MISS:      80633  HIT %:     38.496  MISS %:     61.504   MPKI: 1.61266
L2C PREFETCH  ACCESS:     713537  HIT:     606792  MISS:     106745  HIT %:      85.04  MISS %:      14.96   MPKI: 2.1349
L2C DATA PREFETCH MPKI: 0.0025
L2C INSTRUCTION PREFETCH MPKI: 2.1324
L2C WRITEBACK ACCESS:     191919  HIT:     183337  MISS:       8582  HIT %:    95.5283  MISS %:    4.47168   MPKI: 0.17164
L2C LOAD TRANSLATION ACCESS:       3987  HIT:       1824  MISS:       2163  HIT %:    45.7487  MISS %:    54.2513   MPKI: 0.04326
L2C TRANSLATION FROM L1D PREFETCHER ACCESS:        764  HIT:        308  MISS:        456  HIT %:    40.3141  MISS %:    59.6859   MPKI: 0.00912
L2C PREFETCH  REQUESTED:        234  ISSUED:        234  USEFUL:       9077  USELESS:      97301
L2C USEFUL LOAD PREFETCHES:       9077 PREFETCH ISSUED TO LOWER LEVEL:     106745  ACCURACY: 8.50344
L2C TIMELY PREFETCHES:       9077 LATE PREFETCHES: 0 DROPPED PREFETCHES: 0
L2C PREFETCHES SAME FILL-ORIGIN LEVEL: 125 DIFFERENT FILL-ORIGIN LEVEL: 0
L2C AVERAGE MISS LATENCY: 83.5048 cycles
L2C RQ	ACCESS:     708779	FORWARD:          0	MERGED:          0	TO_CACHE:     708766
L2C WQ	ACCESS:     191919	FORWARD:         13	MERGED:          0	TO_CACHE:     191919
L2C PQ	ACCESS:     713537	FORWARD:          0	MERGED:          0	TO_CACHE:     713537

L2C Instructions Evicting Data 71322
L2C Translations Evicting Data 1347
L2C Data Evicting Data 68533
L2C Instructions Evicting Instructions 73757
L2C Translations Evicting Instructions 1245
L2C Data Evicting Instructions 66175
L2C Instructions Evicting Translations 1293
L2C Translations Evicting Translations 27
L2C Data Evicting Translations 1194
L2C Dense regions hint from L2: 0
PSCL5 TOTAL     ACCESS:       4497  HIT:       4497  MISS:          0  HIT %:        100  MISS %:          0   MPKI: 0
PSCL5 LOAD TRANSLATION ACCESS:       3762  HIT:       3762  MISS:          0  HIT %:        100  MISS %:          0   MPKI: 0
PSCL5 TRANSLATION FROM L1D PREFETCHER ACCESS:        735  HIT:        735  MISS:          0  HIT %:        100  MISS %:          0   MPKI: 0
PSCL5 PREFETCH  REQUESTED:          0  ISSUED:          0  USEFUL:          0  USELESS:          0
PSCL5 USEFUL LOAD PREFETCHES:          0 PREFETCH ISSUED TO LOWER LEVEL:          0  ACCURACY: -nan
PSCL5 TIMELY PREFETCHES:          0 LATE PREFETCHES: 0 DROPPED PREFETCHES: 0
PSCL5 PREFETCHES SAME FILL-ORIGIN LEVEL: 0 DIFFERENT FILL-ORIGIN LEVEL: 0

PSCL4 TOTAL     ACCESS:       4494  HIT:       4493  MISS:          1  HIT %:    99.9777  MISS %:  0.0222519   MPKI: 2e-05
PSCL4 LOAD TRANSLATION ACCESS:       3759  HIT:       3758  MISS:          1  HIT %:    99.9734  MISS %:  0.0266028   MPKI: 2e-05
PSCL4 TRANSLATION FROM L1D PREFETCHER ACCESS:        735  HIT:        735  MISS:          0  HIT %:        100  MISS %:          0   MPKI: 0
PSCL4 PREFETCH  REQUESTED:          0  ISSUED:          0  USEFUL:          0  USELESS:          0
PSCL4 USEFUL LOAD PREFETCHES:          0 PREFETCH ISSUED TO LOWER LEVEL:          0  ACCURACY: -nan
PSCL4 TIMELY PREFETCHES:          0 LATE PREFETCHES: 0 DROPPED PREFETCHES: 0
PSCL4 PREFETCHES SAME FILL-ORIGIN LEVEL: 0 DIFFERENT FILL-ORIGIN LEVEL: 0

PSCL3 TOTAL     ACCESS:       4398  HIT:       4378  MISS:         20  HIT %:    99.5452  MISS %:   0.454752   MPKI: 0.0004
PSCL3 LOAD TRANSLATION ACCESS:       3697  HIT:       3677  MISS:         20  HIT %:     99.459  MISS %:   0.540979   MPKI: 0.0004
PSCL3 TRANSLATION FROM L1D PREFETCHER ACCESS:        701  HIT:        701  MISS:          0  HIT %:        100  MISS %:          0   MPKI: 0
PSCL3 PREFETCH  REQUESTED:          0  ISSUED:          0  USEFUL:          0  USELESS:          0
PSCL3 USEFUL LOAD PREFETCHES:          0 PREFETCH ISSUED TO LOWER LEVEL:          0  ACCURACY: -nan
PSCL3 TIMELY PREFETCHES:          0 LATE PREFETCHES: 0 DROPPED PREFETCHES: 0
PSCL3 PREFETCHES SAME FILL-ORIGIN LEVEL: 0 DIFFERENT FILL-ORIGIN LEVEL: 0

PSCL2 TOTAL     ACCESS:       4489  HIT:       4263  MISS:        226  HIT %:    94.9655  MISS %:    5.03453   MPKI: 0.00452
PSCL2 LOAD TRANSLATION ACCESS:       3782  HIT:       3556  MISS:        226  HIT %:    94.0243  MISS %:    5.97567   MPKI: 0.00452
PSCL2 TRANSLATION FROM L1D PREFETCHER ACCESS:        707  HIT:        707  MISS:          0  HIT %:        100  MISS %:          0   MPKI: 0
PSCL2 PREFETCH  REQUESTED:          0  ISSUED:          0  USEFUL:          0  USELESS:          0
PSCL2 USEFUL LOAD PREFETCHES:          0 PREFETCH ISSUED TO LOWER LEVEL:          0  ACCURACY: -nan
PSCL2 TIMELY PREFETCHES:          0 LATE PREFETCHES: 0 DROPPED PREFETCHES: 0
PSCL2 PREFETCHES SAME FILL-ORIGIN LEVEL: 0 DIFFERENT FILL-ORIGIN LEVEL: 0

LLC TOTAL     ACCESS:     376042  HIT:     270164  MISS:     105878  HIT %:    71.8441  MISS %:    28.1559   MPKI: 2.11756
LLC LOAD      ACCESS:      94896  HIT:      67296  MISS:      27600  HIT %:    70.9155  MISS %:    29.0845   MPKI: 0.552
LLC RFO       ACCESS:      80632  HIT:      37045  MISS:      43587  HIT %:    45.9433  MISS %:    54.0567   MPKI: 0.87174
LLC PREFETCH  ACCESS:     106745  HIT:      76297  MISS:      30448  HIT %:    71.4759  MISS %:    28.5241   MPKI: 0.60896
LLC WRITEBACK ACCESS:      91150  HIT:      87955  MISS:       3195  HIT %:    96.4948  MISS %:    3.50521   MPKI: 0.0639
LLC LOAD TRANSLATION ACCESS:       2163  HIT:       1243  MISS:        920  HIT %:    57.4665  MISS %:    42.5335   MPKI: 0.0184
LLC TRANSLATION FROM L1D PREFETCHER ACCESS:        456  HIT:        328  MISS:        128  HIT %:    71.9298  MISS %:    28.0702   MPKI: 0.00256
LLC PREFETCH  REQUESTED:          0  ISSUED:          0  USEFUL:       2265  USELESS:      29382
LLC USEFUL LOAD PREFETCHES:       2265 PREFETCH ISSUED TO LOWER LEVEL:      30448  ACCURACY: 7.43891
LLC TIMELY PREFETCHES:       2265 LATE PREFETCHES: 0 DROPPED PREFETCHES: 0
LLC PREFETCHES SAME FILL-ORIGIN LEVEL: 0 DIFFERENT FILL-ORIGIN LEVEL: 0
LLC AVERAGE MISS LATENCY: 150.618 cycles
LLC RQ	ACCESS:     178148	FORWARD:          0	MERGED:          0	TO_CACHE:     178147
LLC WQ	ACCESS:      91150	FORWARD:          1	MERGED:          0	TO_CACHE:      91150
LLC PQ	ACCESS:     106745	FORWARD:          0	MERGED:          0	TO_CACHE:     106745

LLC Dense regions hint to LLC: 0

RAW hits: 1009469
Loads Generated: 14209317
Loads sent to L1D: 13199848
Stores Generated: 5238051
Stores sent to L1D: 5238055
Major fault: 0 Minor fault: 4055
Allocated PAGES: 4055
I-Shadow cache 408 bytes
Touched + WorthPF tables 6144 bytes 
MMA filter 174 bytes 
FNL filter 272 bytes 
TOTAL PREFETCHER STORAGE SIZE: 25174 bytes
CPU 0 L1I next line prefetcher final stats
[Bingo] PHT Access: 163
[Bingo] PHT Hit PC+Addr: 4
[Bingo] PHT Hit PC+Offs: 37
[Bingo] PHT Miss: 122
[Bingo] Prefetch PC+Addr: 0
[Bingo] Prefetch PC+Offs: 0
[Bingo] Useful PC+Addr: 0
[Bingo] Useful PC+Offs: 0
[Bingo] Useless PC+Addr: 0
[Bingo] Useless PC+Offs: 0
[Bingo] L1 Prefetch per Region: 0
[Bingo] L2 Prefetch per Region: 6.80488
[Bingo] L3 Prefetch per Region: 0
[Bingo] No Prefetch per Region: 25.1951
[Bingo] Number of Voters Mean: 1.21622
[Bingo] Number of Voters SD: 24.7109
PHT read accesses: 1929
PHT write accesses: 245
AT read accesses: 833
AT write accesses: 719
FT read accesses: 504
FT write accesses: 163
PS read accesses: 89
PS write accesses: 41
PHT tag read accesses: 8611
PHT tag write accesses: 249
AT tag read accesses: 4712852
AT tag write accesses: 964
FT tag read accesses: 4705896
FT tag write accesses: 526
PS tag read accesses: 13642
PS tag write accesses: 130

DRAM Statistics
 CHANNEL 0
 RQ ROW_BUFFER_HIT:      25939  ROW_BUFFER_MISS:      76736
 DBUS_CONGESTED:        148
 WQ ROW_BUFFER_HIT:       7304  ROW_BUFFER_MISS:      35560  FULL:          0

 AVG_CONGESTED_CYCLE: 4
 All warmup complete: 2
Channel 0 Bank busy for read cycles: 0
Channel 0 Bank busy for write cycles: 0
Channel 0
Rank 0
0banks busy for read cycles: 71621412
0banks busy for write cycles: 16442
1banks busy for read cycles: 4859926
1banks busy for write cycles: 2173937
2banks busy for read cycles: 1306418
2banks busy for write cycles: 709322
3banks busy for read cycles: 499625
3banks busy for write cycles: 353188
4banks busy for read cycles: 285066
4banks busy for write cycles: 211874
5banks busy for read cycles: 177950
5banks busy for write cycles: 152166
6banks busy for read cycles: 169411
6banks busy for write cycles: 98433
7banks busy for read cycles: 72302
7banks busy for write cycles: 81888
8banks busy for read cycles: 37414
8banks busy for write cycles: 122622

CPU 0 Branch Prediction Accuracy: 94.1242% MPKI: 11.6089 Average ROB Occupancy at Mispredict: 34.5587
Branch types
NOT_BRANCH: 40121082 80.2422%
BRANCH_DIRECT_JUMP: 644555 1.28911%
BRANCH_INDIRECT: 201946 0.403892%
BRANCH_CONDITIONAL: 7003557 14.0071%
BRANCH_DIRECT_CALL: 564821 1.12964%
BRANCH_INDIRECT_CALL: 445012 0.890024%
BRANCH_RETURN: 1018716 2.03743%
BRANCH_OTHER: 0 0%

DRAM PAGES: 1048576
Allocated PAGES: 4055
