
*** ChampSim Multicore Out-of-Order Simulator ***

Warmup Instructions: 50000000
Simulation Instructions: 50000000
Number of CPUs: 1
LLC sets: 2048
LLC ways: 16
Off-chip DRAM Size: 4096 MB Channels: 1 Width: 64-bit Data Rate: 6400 MT/s
CPU 0 runs ../IPC-traces//client_006.champsimtrace.xz
.xz
NUM_OF_IPS_IN_CRITICAL_IP_TRAINING: 64
NUM_OF_CRITICAL_IP_TRAINING_TABLE_WAYS: 2
NUM_OF_CRITICAL_IP_TRAINING_TABLE_SETS: 32
WOBBLY_CRITICAL_IP_CACHE_SETS: 32
WOBBLY_CRITICAL_IP_CACHE_WAYS: 4
BTB has LRU replacement policy
ITLB has LRU replacement policy
DTLB has LRU replacement policy
STLB has LRU replacement policy
CPU 0 L1I next line prefetcher
L1I has LRU replacement policy
IP Table Entries: 64
L1D has LRU replacement policy
Initialize SRRIP state for L2C
Initialize DRRIP state for LLC
Heartbeat CPU 0 instructions: 10000001 cycles: 3365835 heartbeat IPC: 2.97103 cumulative IPC: 2.97103 (Simulation time: 0 hr 5 min 45 sec) 
Heartbeat CPU 0 instructions: 20000002 cycles: 6628067 heartbeat IPC: 3.06539 cumulative IPC: 3.01747 (Simulation time: 0 hr 10 min 57 sec) 
Heartbeat CPU 0 instructions: 30000003 cycles: 9417918 heartbeat IPC: 3.58442 cumulative IPC: 3.18542 (Simulation time: 0 hr 14 min 9 sec) 
Heartbeat CPU 0 instructions: 40000000 cycles: 12340741 heartbeat IPC: 3.42135 cumulative IPC: 3.2413 (Simulation time: 0 hr 17 min 45 sec) 
Heartbeat CPU 0 instructions: 50000003 cycles: 15535510 heartbeat IPC: 3.13012 cumulative IPC: 3.21843 (Simulation time: 0 hr 21 min 44 sec) 

Warmup complete CPU 0 instructions: 50000003 cycles: 15535510 (Simulation time: 0 hr 21 min 44 sec) 

% increase in all ip prefetch 282.644
% increase in all ip prefetch 21.5834
% increase in all ip prefetch 30.9697
% increase in all ip prefetch 6.20336
% increase in all ip prefetch 31.5672
Heartbeat CPU 0 instructions: 60000002 cycles: 29651824 heartbeat IPC: 0.7084 cumulative IPC: 0.7084 (Simulation time: 0 hr 24 min 53 sec) 
Heartbeat CPU 0 instructions: 70000000 cycles: 46016327 heartbeat IPC: 0.611079 cumulative IPC: 0.65615 (Simulation time: 0 hr 28 min 18 sec) 
Heartbeat CPU 0 instructions: 80000002 cycles: 60399830 heartbeat IPC: 0.695241 cumulative IPC: 0.668683 (Simulation time: 0 hr 31 min 29 sec) 
Heartbeat CPU 0 instructions: 90000003 cycles: 74526958 heartbeat IPC: 0.707858 cumulative IPC: 0.678064 (Simulation time: 0 hr 34 min 31 sec) 
Heartbeat CPU 0 instructions: 100000001 cycles: 88530133 heartbeat IPC: 0.714124 cumulative IPC: 0.684982 (Simulation time: 0 hr 37 min 31 sec) 
Finished CPU 0 instructions: 50000002 cycles: 72994624 cumulative IPC: 0.684982 (Simulation time: 0 hr 37 min 31 sec) 

ChampSim completed all CPUs

Region of Interest Statistics

CPU 0 cumulative IPC: 0.684982 instructions: 50000002 cycles: 72994624

CPU 0 Average Load ROB stall cycles: 1.7619e+07
CPU 0 Fraction of times ROB stalled by Loads: 33.6523
CPU 0 Percentage of Load stall cycles in Total stall cycles: 2.06528e+08
Issued all: 29527156
Issued LT all: 23325293
rob_not_full_when_issued_lt_all: 19479842
Issued LT one: 19241345
rob_not_full_when_issued_lt_one: 15653130
 Total stall cycles: 60710706
 Total load stall cycles: 125384590814904
CPU 0 NUM of IPS identified critical: 0
CPU 0 Num of Load IPs stalling ROB: 9945
Threshold modification factor: 0
Max PIST entries: 64
Min PIST entries: 0
Avg PIST entries: 32
Trouble in retire width: 0.873932
MaC = Marked as critical.
lt_50_percent_before_Mac: 0
gt_90_percent_before_Mac: 0
gt_75_percent_before_Mac: 0
gt_50_percent_before_Mac: 0
stall_proportion_bin_same_before_after: 0
stall_proportion_bin_lower_before_after: 0
stall_proportion_bin_upper_before_after: 0
average_stall_proportion_before: -nan
average_stall_proportion_after: -nan
Critical IP stalls, total frequency: 0
Non-critical IP stalls, total frequency: 2394840
Total Freq all stalling IPs: 2394840
stat_90_percent_critical_ip_stalls_freq: 2155795
stat_90_percent_non_critical_ip_stalls_freq: 239045
Critical_IP_ROB_Stalls_Bucket_0: 0
Non-critical_IP_ROB_Stalls_Bucket_0: 1329249
Critical_IP_ROB_Stalls_Bucket_1: 0
Non-critical_IP_ROB_Stalls_Bucket_1: 517279
Critical_IP_ROB_Stalls_Bucket_2: 0
Non-critical_IP_ROB_Stalls_Bucket_2: 237796
Critical_IP_ROB_Stalls_Bucket_3: 0
Non-critical_IP_ROB_Stalls_Bucket_3: 108836
Critical_IP_ROB_Stalls_Bucket_4: 0
Non-critical_IP_ROB_Stalls_Bucket_4: 55396
Critical_IP_ROB_Stalls_Bucket_5: 0
Non-critical_IP_ROB_Stalls_Bucket_5: 36056
Critical_IP_ROB_Stalls_Bucket_6: 0
Non-critical_IP_ROB_Stalls_Bucket_6: 110228
0 => IPs accounting for >50 percent of stalls, 1 => 55, 2 => 60, 3 => 65 and so on till 90.
percent50: 50.0955 num IPs:  132
percent55: 55.0839 num IPs: 165
percent60: 60.0898 num IPs: 204
percent65: 65.0559 num IPs: 252
percent70: 70.0073 num IPs: 314
percent75: 75.0452 num IPs: 397
percent80: 80.0076 num IPs: 504
percent85: 85.0118 num IPs: 633
percent90: 90.0184 num IPs: 824
Critical_ROB_Stalls_Percent_0_Bucket_0: 713357
Non-critical_ROB_Stalls_Percent_0_Bucket_0: 615892
Critical_ROB_Stalls_Percent_0_Bucket_1: 255614
Non-critical_ROB_Stalls_Percent_0_Bucket_1: 261665
Critical_ROB_Stalls_Percent_0_Bucket_2: 101686
Non-critical_ROB_Stalls_Percent_0_Bucket_2: 136110
Critical_ROB_Stalls_Percent_0_Bucket_3: 50456
Non-critical_ROB_Stalls_Percent_0_Bucket_3: 58380
Critical_ROB_Stalls_Percent_0_Bucket_4: 20908
Non-critical_ROB_Stalls_Percent_0_Bucket_4: 34488
Critical_ROB_Stalls_Percent_0_Bucket_5: 13041
Non-critical_ROB_Stalls_Percent_0_Bucket_5: 23015
Critical_ROB_Stalls_Percent_0_Bucket_6: 44645
Non-critical_ROB_Stalls_Percent_0_Bucket_6: 65583
Critical_ROB_Stalls_Percent_1_Bucket_0: 794946
Non-critical_ROB_Stalls_Percent_1_Bucket_0: 534303
Critical_ROB_Stalls_Percent_1_Bucket_1: 276884
Non-critical_ROB_Stalls_Percent_1_Bucket_1: 240395
Critical_ROB_Stalls_Percent_1_Bucket_2: 110693
Non-critical_ROB_Stalls_Percent_1_Bucket_2: 127103
Critical_ROB_Stalls_Percent_1_Bucket_3: 54333
Non-critical_ROB_Stalls_Percent_1_Bucket_3: 54503
Critical_ROB_Stalls_Percent_1_Bucket_4: 22505
Non-critical_ROB_Stalls_Percent_1_Bucket_4: 32891
Critical_ROB_Stalls_Percent_1_Bucket_5: 13823
Non-critical_ROB_Stalls_Percent_1_Bucket_5: 22233
Critical_ROB_Stalls_Percent_1_Bucket_6: 45987
Non-critical_ROB_Stalls_Percent_1_Bucket_6: 64241
Critical_ROB_Stalls_Percent_2_Bucket_0: 858672
Non-critical_ROB_Stalls_Percent_2_Bucket_0: 470577
Critical_ROB_Stalls_Percent_2_Bucket_1: 289029
Non-critical_ROB_Stalls_Percent_2_Bucket_1: 228250
Critical_ROB_Stalls_Percent_2_Bucket_2: 120106
Non-critical_ROB_Stalls_Percent_2_Bucket_2: 117690
Critical_ROB_Stalls_Percent_2_Bucket_3: 58565
Non-critical_ROB_Stalls_Percent_2_Bucket_3: 50271
Critical_ROB_Stalls_Percent_2_Bucket_4: 25316
Non-critical_ROB_Stalls_Percent_2_Bucket_4: 30080
Critical_ROB_Stalls_Percent_2_Bucket_5: 15702
Non-critical_ROB_Stalls_Percent_2_Bucket_5: 20354
Critical_ROB_Stalls_Percent_2_Bucket_6: 71665
Non-critical_ROB_Stalls_Percent_2_Bucket_6: 38563
Critical_ROB_Stalls_Percent_3_Bucket_0: 927165
Non-critical_ROB_Stalls_Percent_3_Bucket_0: 402084
Critical_ROB_Stalls_Percent_3_Bucket_1: 310770
Non-critical_ROB_Stalls_Percent_3_Bucket_1: 206509
Critical_ROB_Stalls_Percent_3_Bucket_2: 133576
Non-critical_ROB_Stalls_Percent_3_Bucket_2: 104220
Critical_ROB_Stalls_Percent_3_Bucket_3: 63646
Non-critical_ROB_Stalls_Percent_3_Bucket_3: 45190
Critical_ROB_Stalls_Percent_3_Bucket_4: 29270
Non-critical_ROB_Stalls_Percent_3_Bucket_4: 26126
Critical_ROB_Stalls_Percent_3_Bucket_5: 17472
Non-critical_ROB_Stalls_Percent_3_Bucket_5: 18584
Critical_ROB_Stalls_Percent_3_Bucket_6: 76085
Non-critical_ROB_Stalls_Percent_3_Bucket_6: 34143
Critical_ROB_Stalls_Percent_4_Bucket_0: 985339
Non-critical_ROB_Stalls_Percent_4_Bucket_0: 343910
Critical_ROB_Stalls_Percent_4_Bucket_1: 336700
Non-critical_ROB_Stalls_Percent_4_Bucket_1: 180579
Critical_ROB_Stalls_Percent_4_Bucket_2: 151420
Non-critical_ROB_Stalls_Percent_4_Bucket_2: 86376
Critical_ROB_Stalls_Percent_4_Bucket_3: 70844
Non-critical_ROB_Stalls_Percent_4_Bucket_3: 37992
Critical_ROB_Stalls_Percent_4_Bucket_4: 33240
Non-critical_ROB_Stalls_Percent_4_Bucket_4: 22156
Critical_ROB_Stalls_Percent_4_Bucket_5: 19232
Non-critical_ROB_Stalls_Percent_4_Bucket_5: 16824
Critical_ROB_Stalls_Percent_4_Bucket_6: 79789
Non-critical_ROB_Stalls_Percent_4_Bucket_6: 30439
Critical_ROB_Stalls_Percent_5_Bucket_0: 1052324
Non-critical_ROB_Stalls_Percent_5_Bucket_0: 276925
Critical_ROB_Stalls_Percent_5_Bucket_1: 360226
Non-critical_ROB_Stalls_Percent_5_Bucket_1: 157053
Critical_ROB_Stalls_Percent_5_Bucket_2: 163386
Non-critical_ROB_Stalls_Percent_5_Bucket_2: 74410
Critical_ROB_Stalls_Percent_5_Bucket_3: 77789
Non-critical_ROB_Stalls_Percent_5_Bucket_3: 31047
Critical_ROB_Stalls_Percent_5_Bucket_4: 36459
Non-critical_ROB_Stalls_Percent_5_Bucket_4: 18937
Critical_ROB_Stalls_Percent_5_Bucket_5: 23281
Non-critical_ROB_Stalls_Percent_5_Bucket_5: 12775
Critical_ROB_Stalls_Percent_5_Bucket_6: 83748
Non-critical_ROB_Stalls_Percent_5_Bucket_6: 26480
Critical_ROB_Stalls_Percent_6_Bucket_0: 1090242
Non-critical_ROB_Stalls_Percent_6_Bucket_0: 239007
Critical_ROB_Stalls_Percent_6_Bucket_1: 398158
Non-critical_ROB_Stalls_Percent_6_Bucket_1: 119121
Critical_ROB_Stalls_Percent_6_Bucket_2: 188026
Non-critical_ROB_Stalls_Percent_6_Bucket_2: 49770
Critical_ROB_Stalls_Percent_6_Bucket_3: 85033
Non-critical_ROB_Stalls_Percent_6_Bucket_3: 23803
Critical_ROB_Stalls_Percent_6_Bucket_4: 38711
Non-critical_ROB_Stalls_Percent_6_Bucket_4: 16685
Critical_ROB_Stalls_Percent_6_Bucket_5: 25705
Non-critical_ROB_Stalls_Percent_6_Bucket_5: 10351
Critical_ROB_Stalls_Percent_6_Bucket_6: 90179
Non-critical_ROB_Stalls_Percent_6_Bucket_6: 20049
Critical_ROB_Stalls_Percent_7_Bucket_0: 1150312
Non-critical_ROB_Stalls_Percent_7_Bucket_0: 178937
Critical_ROB_Stalls_Percent_7_Bucket_1: 428422
Non-critical_ROB_Stalls_Percent_7_Bucket_1: 88857
Critical_ROB_Stalls_Percent_7_Bucket_2: 199277
Non-critical_ROB_Stalls_Percent_7_Bucket_2: 38519
Critical_ROB_Stalls_Percent_7_Bucket_3: 90377
Non-critical_ROB_Stalls_Percent_7_Bucket_3: 18459
Critical_ROB_Stalls_Percent_7_Bucket_4: 45369
Non-critical_ROB_Stalls_Percent_7_Bucket_4: 10027
Critical_ROB_Stalls_Percent_7_Bucket_5: 28458
Non-critical_ROB_Stalls_Percent_7_Bucket_5: 7598
Critical_ROB_Stalls_Percent_7_Bucket_6: 93681
Non-critical_ROB_Stalls_Percent_7_Bucket_6: 16547
Critical_ROB_Stalls_Percent_8_Bucket_0: 1214798
Non-critical_ROB_Stalls_Percent_8_Bucket_0: 114451
Critical_ROB_Stalls_Percent_8_Bucket_1: 455618
Non-critical_ROB_Stalls_Percent_8_Bucket_1: 61661
Critical_ROB_Stalls_Percent_8_Bucket_2: 210263
Non-critical_ROB_Stalls_Percent_8_Bucket_2: 27533
Critical_ROB_Stalls_Percent_8_Bucket_3: 96177
Non-critical_ROB_Stalls_Percent_8_Bucket_3: 12659
Critical_ROB_Stalls_Percent_8_Bucket_4: 48177
Non-critical_ROB_Stalls_Percent_8_Bucket_4: 7219
Critical_ROB_Stalls_Percent_8_Bucket_5: 30307
Non-critical_ROB_Stalls_Percent_8_Bucket_5: 5749
Critical_ROB_Stalls_Percent_8_Bucket_6: 100455
Non-critical_ROB_Stalls_Percent_8_Bucket_6: 9773
Average ROB occupancy Load Stall Begin: 63.9711
Average ROB occupancy Load Stall End: 75.6979
Min ROB occupancy Load Stall Begin: 1
Max ROB occupancy Load Stall Begin: 352
Min ROB occupancy Load Stall End: 1
Max ROB occupancy Load Stall End: 352
Average ROB occupancy Critical Load Stall Begin: -nan
Average ROB occupancy Critical Load Stall End: -nan
Min ROB occupancy Critical Load Stall Begin: 400
Max ROB occupancy Critical Load Stall Begin: 0
Min ROB occupancy Critical Load Stall End: 400
Max ROB occupancy Critical Load Stall End: 0
 ROB Load Stall Begin Bucket Count 0: 1552266
 ROB Load Stall End Bucket Count 0: 1329249
 ROB Critical Load Stall Begin Bucket Count 0: 0
 ROB Critical Load Stall End Bucket Count 0: 0
 ROB Load Stall Begin Bucket Count 1: 404824
 ROB Load Stall End Bucket Count 1: 517279
 ROB Critical Load Stall Begin Bucket Count 1: 0
 ROB Critical Load Stall End Bucket Count 1: 0
 ROB Load Stall Begin Bucket Count 2: 187595
 ROB Load Stall End Bucket Count 2: 237796
 ROB Critical Load Stall Begin Bucket Count 2: 0
 ROB Critical Load Stall End Bucket Count 2: 0
 ROB Load Stall Begin Bucket Count 3: 79651
 ROB Load Stall End Bucket Count 3: 108836
 ROB Critical Load Stall Begin Bucket Count 3: 0
 ROB Critical Load Stall End Bucket Count 3: 0
 ROB Load Stall Begin Bucket Count 4: 42650
 ROB Load Stall End Bucket Count 4: 55396
 ROB Critical Load Stall Begin Bucket Count 4: 0
 ROB Critical Load Stall End Bucket Count 4: 0
 ROB Load Stall Begin Bucket Count 5: 33049
 ROB Load Stall End Bucket Count 5: 36056
 ROB Critical Load Stall Begin Bucket Count 5: 0
 ROB Critical Load Stall End Bucket Count 5: 0
 ROB Load Stall Begin Bucket Count 6: 94805
 ROB Load Stall End Bucket Count 6: 110228
 ROB Critical Load Stall Begin Bucket Count 6: 0
 ROB Critical Load Stall End Bucket Count 6: 0
PIST Tag Read Accesses: 2169438
PIST Read Accesses: 1084719
PIST Tag Write Accesses: 2169438
PIST Write Accesses: 1084719
Criticality detector called times: 1211657
Max global_stall_cycles_count: 3014198
Threshold Modified: 5 times, factor: 0
Sturdy critical IP cache stats: 
 Unused entries: 0
CIC Tag Read Accesses: 0
CIC Read Accesses: 0
CIC Tag Write Accesses: 0
CIC Write Accesses: 0
Wobbly critical IP cache stats: 
 Unused entries: 0
CIC Tag Read Accesses: 75472161
CIC Read Accesses: 0
CIC Tag Write Accesses: 1977437
CIC Write Accesses: 0
ITLB TOTAL     ACCESS:    8348191  HIT:    8147831  MISS:     200360  HIT %:       97.6  MISS %:    2.40004   MPKI: 4.0072
ITLB LOAD TRANSLATION ACCESS:    7591477  HIT:    7574990  MISS:      16487  HIT %:    99.7828  MISS %:   0.217178   MPKI: 0.32974
ITLB TRANSLATION FROM L1D PREFETCHER ACCESS:     756714  HIT:     572841  MISS:     183873  HIT %:    75.7011  MISS %:    24.2989   MPKI: 3.67746
ITLB PREFETCH  REQUESTED:          0  ISSUED:          0  USEFUL:     149719  USELESS:      34150
ITLB USEFUL LOAD PREFETCHES:     149719 PREFETCH ISSUED TO LOWER LEVEL:          0  ACCURACY: inf
ITLB TIMELY PREFETCHES:     149719 LATE PREFETCHES: 118 DROPPED PREFETCHES: 14
ITLB PREFETCHES SAME FILL-ORIGIN LEVEL: 0 DIFFERENT FILL-ORIGIN LEVEL: 0
ITLB AVERAGE MISS LATENCY: 31510.2 cycles
ITLB RQ	ACCESS:   11099643	FORWARD:          0	MERGED:    2742072	TO_CACHE:    8357571

DTLB TOTAL     ACCESS:    9055537  HIT:    8764287  MISS:     291250  HIT %:    96.7837  MISS %:    3.21626   MPKI: 5.825
DTLB LOAD TRANSLATION ACCESS:    9055537  HIT:    8764287  MISS:     291250  HIT %:    96.7837  MISS %:    3.21626   MPKI: 5.825
DTLB PREFETCH  REQUESTED:          0  ISSUED:          0  USEFUL:          0  USELESS:          0
DTLB USEFUL LOAD PREFETCHES:          0 PREFETCH ISSUED TO LOWER LEVEL:          0  ACCURACY: -nan
DTLB TIMELY PREFETCHES:          0 LATE PREFETCHES: 0 DROPPED PREFETCHES: 0
DTLB PREFETCHES SAME FILL-ORIGIN LEVEL: 0 DIFFERENT FILL-ORIGIN LEVEL: 0
DTLB AVERAGE MISS LATENCY: 18.7425 cycles
DTLB RQ	ACCESS:   11047031	FORWARD:          0	MERGED:    1974111	TO_CACHE:    9072920

STLB TOTAL     ACCESS:     806314  HIT:     781050  MISS:      25264  HIT %:    96.8667  MISS %:    3.13327   MPKI: 0.50528
STLB LOAD TRANSLATION ACCESS:     307619  HIT:     284000  MISS:      23619  HIT %:     92.322  MISS %:      7.678   MPKI: 0.47238
STLB TRANSLATION FROM L1D PREFETCHER ACCESS:     498695  HIT:     497050  MISS:       1645  HIT %:    99.6701  MISS %:   0.329861   MPKI: 0.0329
STLB PREFETCH  REQUESTED:          0  ISSUED:          0  USEFUL:       1064  USELESS:        594
STLB USEFUL LOAD PREFETCHES:       1064 PREFETCH ISSUED TO LOWER LEVEL:          0  ACCURACY: inf
STLB TIMELY PREFETCHES:       1064 LATE PREFETCHES: 0 DROPPED PREFETCHES: 14
STLB PREFETCHES SAME FILL-ORIGIN LEVEL: 0 DIFFERENT FILL-ORIGIN LEVEL: 0
STLB AVERAGE MISS LATENCY: 130.982 cycles
STLB RQ	ACCESS:     910441	FORWARD:          0	MERGED:     104113	TO_CACHE:     806328

STLB Hit, L1D data hit: 0
STLB Hit, L2C data hit: 0
STLB Hit, LLC data hit: 0
STLB Hit, LLC data miss: 0
STLB STLB hints to L2: 0
L1D TOTAL     ACCESS:   11197753  HIT:   10653214  MISS:     544539  HIT %:    95.1371  MISS %:    4.86293   MPKI: 10.8908
L1D LOAD      ACCESS:    6551790  HIT:    6155638  MISS:     396152  HIT %:    93.9535  MISS %:    6.04647   MPKI: 7.92304
L1D RFO       ACCESS:    4342942  HIT:    4305697  MISS:      37245  HIT %:    99.1424  MISS %:   0.857598   MPKI: 0.7449
L1D PREFETCH  ACCESS:     303021  HIT:     191879  MISS:     111142  HIT %:     63.322  MISS %:     36.678   MPKI: 2.22284
L1D PREFETCH  REQUESTED:     838038  ISSUED:     837752  USEFUL:      73938  USELESS:      37231
L1D USEFUL LOAD PREFETCHES:      73938 PREFETCH ISSUED TO LOWER LEVEL:     182870  ACCURACY: 40.432
L1D TIMELY PREFETCHES:      73938 LATE PREFETCHES: 70767 DROPPED PREFETCHES: 0
L1D PREFETCHES SAME FILL-ORIGIN LEVEL: 182870 DIFFERENT FILL-ORIGIN LEVEL: 0
L1D AVERAGE MISS LATENCY: 8.5645e+06 cycles
L1D RQ	ACCESS:   10588655	FORWARD:          0	MERGED:    3895425	TO_CACHE:    6606661
L1D WQ	ACCESS:    4525584	FORWARD:      86687	MERGED:      85214	TO_CACHE:    4440370
L1D PQ	ACCESS:     418935	FORWARD:          0	MERGED:          0	TO_CACHE:     418817

L1D UNIQUE REGIONS ACCESSED: 0
L1D REGIONS CONFLICTS: 0
L1D Cross Page Prefetch Requests: 0
L1D Same Page Prefetch Requests: 1147327
L1D ROI Sum of L1D PQ occupancy: 5874166
L1D PREFETCHES PUSHED FROM L2C: 0
L1I TOTAL     ACCESS:   11082405  HIT:   10107613  MISS:     974792  HIT %:    91.2041  MISS %:    8.79585   MPKI: 19.4958
L1I LOAD      ACCESS:    9113941  HIT:    9094631  MISS:      19310  HIT %:    99.7881  MISS %:   0.211873   MPKI: 0.3862
L1I PREFETCH  ACCESS:    1968464  HIT:    1012982  MISS:     955482  HIT %:    51.4605  MISS %:    48.5395   MPKI: 19.1096
L1I PREFETCH  REQUESTED:    2017111  ISSUED:    2012117  USEFUL:     749795  USELESS:     205694
L1I USEFUL LOAD PREFETCHES:     749795 PREFETCH ISSUED TO LOWER LEVEL:     960423  ACCURACY: 78.0692
L1I TIMELY PREFETCHES:     749795 LATE PREFETCHES: 4941 DROPPED PREFETCHES: 25
L1I PREFETCHES SAME FILL-ORIGIN LEVEL: 960423 DIFFERENT FILL-ORIGIN LEVEL: 0
L1I AVERAGE MISS LATENCY: 275125 cycles
L1I RQ	ACCESS:   13288231	FORWARD:          0	MERGED:    4170837	TO_CACHE:    9117394
L1I PQ	ACCESS:    2012117	FORWARD:          0	MERGED:      29868	TO_CACHE:    1982249

BTB TOTAL     ACCESS:    5652927  HIT:    5410510  MISS:     242417  HIT %:    95.7117  MISS %:    4.28834   MPKI: 4.84834
BTB BRANCH_DIRECT_JUMP	ACCESS:     413829  HIT:     410707  MISS:       3122
BTB BRANCH_INDIRECT	ACCESS:      47058  HIT:      28780  MISS:      18278
BTB BRANCH_CONDITIONAL	ACCESS:    3935184  HIT:    3928918  MISS:       6266
BTB BRANCH_DIRECT_CALL	ACCESS:     536885  HIT:     534001  MISS:       2884
BTB BRANCH_INDIRECT_CALL	ACCESS:      90642  HIT:      74824  MISS:      15818
BTB BRANCH_RETURN	ACCESS:     629329  HIT:     433280  MISS:     196049
BTB BRANCH_OTHER ACCESS:          0  HIT:          0  MISS:          0

L2C TOTAL     ACCESS:    1818822  HIT:    1308483  MISS:     510339  HIT %:    71.9412  MISS %:    28.0588   MPKI: 10.2068
L2C LOAD      ACCESS:     339673  HIT:     102356  MISS:     237317  HIT %:    30.1337  MISS %:    69.8663   MPKI: 4.74634
L2C DATA LOAD MPKI: 4.61932
L2C INSTRUCTION LOAD MPKI: 0.12702
L2C RFO       ACCESS:      36648  HIT:       9678  MISS:      26970  HIT %:     26.408  MISS %:     73.592   MPKI: 0.5394
L2C PREFETCH  ACCESS:    1257019  HIT:    1027850  MISS:     229169  HIT %:    81.7689  MISS %:    18.2311   MPKI: 4.58338
L2C DATA PREFETCH MPKI: 3.97768
L2C INSTRUCTION PREFETCH MPKI: 0.6057
L2C WRITEBACK ACCESS:     157280  HIT:     153618  MISS:       3662  HIT %:    97.6717  MISS %:    2.32833   MPKI: 0.07324
L2C LOAD TRANSLATION ACCESS:      26207  HIT:      14164  MISS:      12043  HIT %:    54.0466  MISS %:    45.9534   MPKI: 0.24086
L2C TRANSLATION FROM L1D PREFETCHER ACCESS:       1995  HIT:        817  MISS:       1178  HIT %:    40.9524  MISS %:    59.0476   MPKI: 0.02356
L2C PREFETCH  REQUESTED:     314459  ISSUED:     310580  USEFUL:      24467  USELESS:     204856
L2C USEFUL LOAD PREFETCHES:      24467 PREFETCH ISSUED TO LOWER LEVEL:     240904  ACCURACY: 10.1563
L2C TIMELY PREFETCHES:      24467 LATE PREFETCHES: 11735 DROPPED PREFETCHES: 0
L2C PREFETCHES SAME FILL-ORIGIN LEVEL: 105454 DIFFERENT FILL-ORIGIN LEVEL: 0
L2C AVERAGE MISS LATENCY: 131.554 cycles
L2C RQ	ACCESS:     404607	FORWARD:          0	MERGED:          0	TO_CACHE:     404523
L2C WQ	ACCESS:     157280	FORWARD:         85	MERGED:          0	TO_CACHE:     157280
L2C PQ	ACCESS:    1453506	FORWARD:          0	MERGED:     113985	TO_CACHE:    1339520

L2C Instructions Evicting Data 30750
L2C Translations Evicting Data 11177
L2C Data Evicting Data 413523
L2C Instructions Evicting Instructions 4712
L2C Translations Evicting Instructions 1549
L2C Data Evicting Instructions 31702
L2C Instructions Evicting Translations 1174
L2C Translations Evicting Translations 495
L2C Data Evicting Translations 11595
L2C Dense regions hint from L2: 0
PSCL5 TOTAL     ACCESS:      25278  HIT:      25278  MISS:          0  HIT %:        100  MISS %:          0   MPKI: 0
PSCL5 LOAD TRANSLATION ACCESS:      23619  HIT:      23619  MISS:          0  HIT %:        100  MISS %:          0   MPKI: 0
PSCL5 TRANSLATION FROM L1D PREFETCHER ACCESS:       1659  HIT:       1659  MISS:          0  HIT %:        100  MISS %:          0   MPKI: 0
PSCL5 PREFETCH  REQUESTED:          0  ISSUED:          0  USEFUL:          0  USELESS:          0
PSCL5 USEFUL LOAD PREFETCHES:          0 PREFETCH ISSUED TO LOWER LEVEL:          0  ACCURACY: -nan
PSCL5 TIMELY PREFETCHES:          0 LATE PREFETCHES: 0 DROPPED PREFETCHES: 0
PSCL5 PREFETCHES SAME FILL-ORIGIN LEVEL: 0 DIFFERENT FILL-ORIGIN LEVEL: 0

PSCL4 TOTAL     ACCESS:      22342  HIT:      22317  MISS:         25  HIT %:    99.8881  MISS %:   0.111897   MPKI: 0.0005
PSCL4 LOAD TRANSLATION ACCESS:      20889  HIT:      20864  MISS:         25  HIT %:    99.8803  MISS %:    0.11968   MPKI: 0.0005
PSCL4 TRANSLATION FROM L1D PREFETCHER ACCESS:       1453  HIT:       1453  MISS:          0  HIT %:        100  MISS %:          0   MPKI: 0
PSCL4 PREFETCH  REQUESTED:          0  ISSUED:          0  USEFUL:          0  USELESS:          0
PSCL4 USEFUL LOAD PREFETCHES:          0 PREFETCH ISSUED TO LOWER LEVEL:          0  ACCURACY: -nan
PSCL4 TIMELY PREFETCHES:          0 LATE PREFETCHES: 0 DROPPED PREFETCHES: 0
PSCL4 PREFETCHES SAME FILL-ORIGIN LEVEL: 0 DIFFERENT FILL-ORIGIN LEVEL: 0

PSCL3 TOTAL     ACCESS:      25197  HIT:      25111  MISS:         86  HIT %:    99.6587  MISS %:    0.34131   MPKI: 0.00172
PSCL3 LOAD TRANSLATION ACCESS:      23582  HIT:      23496  MISS:         86  HIT %:    99.6353  MISS %:   0.364685   MPKI: 0.00172
PSCL3 TRANSLATION FROM L1D PREFETCHER ACCESS:       1615  HIT:       1615  MISS:          0  HIT %:        100  MISS %:          0   MPKI: 0
PSCL3 PREFETCH  REQUESTED:          0  ISSUED:          0  USEFUL:          0  USELESS:          0
PSCL3 USEFUL LOAD PREFETCHES:          0 PREFETCH ISSUED TO LOWER LEVEL:          0  ACCURACY: -nan
PSCL3 TIMELY PREFETCHES:          0 LATE PREFETCHES: 0 DROPPED PREFETCHES: 0
PSCL3 PREFETCHES SAME FILL-ORIGIN LEVEL: 0 DIFFERENT FILL-ORIGIN LEVEL: 0

PSCL2 TOTAL     ACCESS:      25276  HIT:      22445  MISS:       2831  HIT %:    88.7997  MISS %:    11.2003   MPKI: 0.05662
PSCL2 LOAD TRANSLATION ACCESS:      23929  HIT:      21098  MISS:       2831  HIT %:    88.1692  MISS %:    11.8308   MPKI: 0.05662
PSCL2 TRANSLATION FROM L1D PREFETCHER ACCESS:       1347  HIT:       1347  MISS:          0  HIT %:        100  MISS %:          0   MPKI: 0
PSCL2 PREFETCH  REQUESTED:          0  ISSUED:          0  USEFUL:          0  USELESS:          0
PSCL2 USEFUL LOAD PREFETCHES:          0 PREFETCH ISSUED TO LOWER LEVEL:          0  ACCURACY: -nan
PSCL2 TIMELY PREFETCHES:          0 LATE PREFETCHES: 0 DROPPED PREFETCHES: 0
PSCL2 PREFETCHES SAME FILL-ORIGIN LEVEL: 0 DIFFERENT FILL-ORIGIN LEVEL: 0

LLC TOTAL     ACCESS:     632968  HIT:     321654  MISS:     311314  HIT %:    50.8168  MISS %:    49.1832   MPKI: 6.22628
LLC LOAD      ACCESS:     225589  HIT:      64941  MISS:     160648  HIT %:    28.7873  MISS %:    71.2127   MPKI: 3.21296
LLC RFO       ACCESS:      26963  HIT:       2310  MISS:      24653  HIT %:     8.5673  MISS %:    91.4327   MPKI: 0.49306
LLC PREFETCH  ACCESS:     240904  HIT:     128805  MISS:     112099  HIT %:    53.4674  MISS %:    46.5326   MPKI: 2.24198
LLC WRITEBACK ACCESS:     126291  HIT:     119620  MISS:       6671  HIT %:    94.7178  MISS %:    5.28224   MPKI: 0.13342
LLC LOAD TRANSLATION ACCESS:      12043  HIT:       5404  MISS:       6639  HIT %:    44.8725  MISS %:    55.1275   MPKI: 0.13278
LLC TRANSLATION FROM L1D PREFETCHER ACCESS:       1178  HIT:        574  MISS:        604  HIT %:    48.7267  MISS %:    51.2733   MPKI: 0.01208
LLC PREFETCH  REQUESTED:          0  ISSUED:          0  USEFUL:       7011  USELESS:     108099
LLC USEFUL LOAD PREFETCHES:       7011 PREFETCH ISSUED TO LOWER LEVEL:     112099  ACCURACY: 6.25429
LLC TIMELY PREFETCHES:       7011 LATE PREFETCHES: 0 DROPPED PREFETCHES: 0
LLC PREFETCHES SAME FILL-ORIGIN LEVEL: 0 DIFFERENT FILL-ORIGIN LEVEL: 0
LLC AVERAGE MISS LATENCY: 168.871 cycles
LLC RQ	ACCESS:     265773	FORWARD:          0	MERGED:          0	TO_CACHE:     265773
LLC WQ	ACCESS:     126291	FORWARD:          0	MERGED:          0	TO_CACHE:     126291
LLC PQ	ACCESS:     240904	FORWARD:          0	MERGED:          0	TO_CACHE:     240904

LLC Dense regions hint to LLC: 0

RAW hits: 986914
Loads Generated: 11575568
Loads sent to L1D: 10588655
Stores Generated: 4525581
Stores sent to L1D: 4525584
Major fault: 0 Minor fault: 10830
Allocated PAGES: 10830
I-Shadow cache 408 bytes
Touched + WorthPF tables 6144 bytes 
MMA filter 174 bytes 
FNL filter 272 bytes 
TOTAL PREFETCHER STORAGE SIZE: 25174 bytes
CPU 0 L1I next line prefetcher final stats

stream: 
stream:times selected: 1173154
stream:pref_filled: 214477
stream:pref_useful: 54015
stream:pref_late: 6539
stream:misses: 13701
stream:misses_by_poll: 0

CS: 
CS:times selected: 517304
CS:pref_filled: 314600
CS:pref_useful: 295853
CS:pref_late: 70450
CS:misses: 97729
CS:misses_by_poll: 26

CPLX: 
CPLX:times selected: 652239
CPLX:pref_filled: 54251
CPLX:pref_useful: 16968
CPLX:pref_late: 1650
CPLX:misses: 93702
CPLX:misses_by_poll: 32

NL_L1: 
NL:times selected: 4017
NL:pref_filled: 680
NL:pref_useful: 349
NL:pref_late: 28
NL:misses: 721
NL:misses_by_poll: 0

total selections: 2346714
total_filled: 111142
total_useful: 73938
total_late: 80493
total_polluted: 58
total_misses_after_warmup: 286914
conflicts: 707417
Degree Incremented Times: 24741
Degree Decremented Times: 115703

L1 IP Table Write Accesses: 2055932
L1 IP Table Read Accesses: 1348515
L1 RST Write Accesses: 496452
L1 RST Read Accesses: 992904
L1 CSPT Write Accesses: 496452
L1 CSPT Read Accesses: 846112
L1 RR Filter Tag Write Accesses: 419221
L1 RR Filter Tag Read Accesses: 31337230
L1 IP Table Tag Write Accesses: 2964080
L1 IP Table Tag Read Accesses: 2964080
L1 RST Tag Write Accesses: 0
L1 RST Tag Read Accesses: 4445560
L1 RR Filter Write Accesses: 0
L1 RR Filter Read Accesses: 1059912
test: 234255
L2 IP Table Read Accesses: 502037
L2 IP Table Write Accesses: 433044
L2 IP Table Tag Read Accesses: 291535
L2 IP Table Tag Write Accesses: 291535

DRAM Statistics
 CHANNEL 0
 RQ ROW_BUFFER_HIT:      67376  ROW_BUFFER_MISS:     237264
 DBUS_CONGESTED:        138
 WQ ROW_BUFFER_HIT:      24647  ROW_BUFFER_MISS:      89669  FULL:          0

 AVG_CONGESTED_CYCLE: 4
 All warmup complete: 2
Channel 0 Bank busy for read cycles: 0
Channel 0 Bank busy for write cycles: 0
Channel 0
Rank 0
0banks busy for read cycles: 41717663
0banks busy for write cycles: 36168
1banks busy for read cycles: 11416236
1banks busy for write cycles: 5008603
2banks busy for read cycles: 5509458
2banks busy for write cycles: 2098705
3banks busy for read cycles: 2154370
3banks busy for write cycles: 1033511
4banks busy for read cycles: 878385
4banks busy for write cycles: 574736
5banks busy for read cycles: 371819
5banks busy for write cycles: 347585
6banks busy for read cycles: 243724
6banks busy for write cycles: 244613
7banks busy for read cycles: 144772
7banks busy for write cycles: 228912
8banks busy for read cycles: 287536
8banks busy for write cycles: 697829

CPU 0 Branch Prediction Accuracy: 98.1683% MPKI: 3.13642 Average ROB Occupancy at Mispredict: 65.8123
Branch types
NOT_BRANCH: 41438057 82.8761%
BRANCH_DIRECT_JUMP: 413829 0.827658%
BRANCH_INDIRECT: 47058 0.094116%
BRANCH_CONDITIONAL: 6843835 13.6877%
BRANCH_DIRECT_CALL: 536885 1.07377%
BRANCH_INDIRECT_CALL: 90642 0.181284%
BRANCH_RETURN: 629329 1.25866%
BRANCH_OTHER: 0 0%

DRAM PAGES: 1048576
Allocated PAGES: 10830
