
*** ChampSim Multicore Out-of-Order Simulator ***

Warmup Instructions: 50000000
Simulation Instructions: 50000000
Number of CPUs: 1
LLC sets: 2048
LLC ways: 16
Off-chip DRAM Size: 4096 MB Channels: 1 Width: 64-bit Data Rate: 6400 MT/s
CPU 0 runs ../IPC-traces//client_007.champsimtrace.xz
.xz
NUM_OF_IPS_IN_CRITICAL_IP_TRAINING: 64
NUM_OF_CRITICAL_IP_TRAINING_TABLE_WAYS: 2
NUM_OF_CRITICAL_IP_TRAINING_TABLE_SETS: 32
WOBBLY_CRITICAL_IP_CACHE_SETS: 32
WOBBLY_CRITICAL_IP_CACHE_WAYS: 4
BTB has LRU replacement policy
ITLB has LRU replacement policy
DTLB has LRU replacement policy
STLB has LRU replacement policy
CPU 0 L1I next line prefetcher
L1I has LRU replacement policy
IP Table Entries: 64
L1D has LRU replacement policy
Initialize SRRIP state for L2C
Initialize DRRIP state for LLC
Heartbeat CPU 0 instructions: 10000003 cycles: 3033333 heartbeat IPC: 3.2967 cumulative IPC: 3.2967 (Simulation time: 0 hr 3 min 10 sec) 
Heartbeat CPU 0 instructions: 20000003 cycles: 5973513 heartbeat IPC: 3.40115 cumulative IPC: 3.34811 (Simulation time: 0 hr 6 min 10 sec) 
Heartbeat CPU 0 instructions: 30000003 cycles: 9154087 heartbeat IPC: 3.14409 cumulative IPC: 3.27723 (Simulation time: 0 hr 9 min 51 sec) 
Heartbeat CPU 0 instructions: 40000003 cycles: 12449008 heartbeat IPC: 3.03497 cumulative IPC: 3.21311 (Simulation time: 0 hr 13 min 35 sec) 
Heartbeat CPU 0 instructions: 50000001 cycles: 15355205 heartbeat IPC: 3.44092 cumulative IPC: 3.25622 (Simulation time: 0 hr 16 min 45 sec) 

Warmup complete CPU 0 instructions: 50000001 cycles: 15355205 (Simulation time: 0 hr 16 min 45 sec) 

% increase in all ip prefetch 264.066
% increase in all ip prefetch 0.764298
Heartbeat CPU 0 instructions: 60000003 cycles: 28476797 heartbeat IPC: 0.762103 cumulative IPC: 0.762103 (Simulation time: 0 hr 19 min 51 sec) 
Heartbeat CPU 0 instructions: 70000003 cycles: 45473084 heartbeat IPC: 0.588364 cumulative IPC: 0.664057 (Simulation time: 0 hr 23 min 27 sec) 
Heartbeat CPU 0 instructions: 80000001 cycles: 55835905 heartbeat IPC: 0.964988 cumulative IPC: 0.741094 (Simulation time: 0 hr 26 min 27 sec) 
Heartbeat CPU 0 instructions: 90000001 cycles: 70217472 heartbeat IPC: 0.695334 cumulative IPC: 0.729099 (Simulation time: 0 hr 29 min 23 sec) 
Heartbeat CPU 0 instructions: 100000000 cycles: 86732380 heartbeat IPC: 0.605513 cumulative IPC: 0.700504 (Simulation time: 0 hr 34 min 0 sec) 
Finished CPU 0 instructions: 50000001 cycles: 71377176 cumulative IPC: 0.700504 (Simulation time: 0 hr 34 min 0 sec) 

ChampSim completed all CPUs

Region of Interest Statistics

CPU 0 cumulative IPC: 0.700504 instructions: 50000001 cycles: 71377176

CPU 0 Average Load ROB stall cycles: 1.87559e+07
CPU 0 Fraction of times ROB stalled by Loads: 38.987
CPU 0 Percentage of Load stall cycles in Total stall cycles: 2.37204e+08
Issued all: 30641588
Issued LT all: 25220696
rob_not_full_when_issued_lt_all: 18631486
Issued LT one: 19503778
rob_not_full_when_issued_lt_one: 14275576
 Total stall cycles: 58891889
 Total load stall cycles: 139694059795433
CPU 0 NUM of IPS identified critical: 0
CPU 0 Num of Load IPs stalling ROB: 12238
Threshold modification factor: -1
Max PIST entries: 64
Min PIST entries: 0
Avg PIST entries: 30.26
Trouble in retire width: 0.905402
MaC = Marked as critical.
lt_50_percent_before_Mac: 0
gt_90_percent_before_Mac: 0
gt_75_percent_before_Mac: 0
gt_50_percent_before_Mac: 0
stall_proportion_bin_same_before_after: 0
stall_proportion_bin_lower_before_after: 0
stall_proportion_bin_upper_before_after: 0
average_stall_proportion_before: -nan
average_stall_proportion_after: -nan
Critical IP stalls, total frequency: 0
Non-critical IP stalls, total frequency: 2903752
Total Freq all stalling IPs: 2903752
stat_90_percent_critical_ip_stalls_freq: 2613591
stat_90_percent_non_critical_ip_stalls_freq: 290161
Critical_IP_ROB_Stalls_Bucket_0: 0
Non-critical_IP_ROB_Stalls_Bucket_0: 1080465
Critical_IP_ROB_Stalls_Bucket_1: 0
Non-critical_IP_ROB_Stalls_Bucket_1: 783975
Critical_IP_ROB_Stalls_Bucket_2: 0
Non-critical_IP_ROB_Stalls_Bucket_2: 382898
Critical_IP_ROB_Stalls_Bucket_3: 0
Non-critical_IP_ROB_Stalls_Bucket_3: 193541
Critical_IP_ROB_Stalls_Bucket_4: 0
Non-critical_IP_ROB_Stalls_Bucket_4: 81911
Critical_IP_ROB_Stalls_Bucket_5: 0
Non-critical_IP_ROB_Stalls_Bucket_5: 49119
Critical_IP_ROB_Stalls_Bucket_6: 0
Non-critical_IP_ROB_Stalls_Bucket_6: 331843
0 => IPs accounting for >50 percent of stalls, 1 => 55, 2 => 60, 3 => 65 and so on till 90.
percent50: 50.0827 num IPs:  118
percent55: 55.0154 num IPs: 160
percent60: 60.0488 num IPs: 216
percent65: 65.0404 num IPs: 289
percent70: 70.0102 num IPs: 389
percent75: 75.0016 num IPs: 527
percent80: 80.0182 num IPs: 723
percent85: 85.0083 num IPs: 974
percent90: 90.0073 num IPs: 1364
Critical_ROB_Stalls_Percent_0_Bucket_0: 347520
Non-critical_ROB_Stalls_Percent_0_Bucket_0: 732945
Critical_ROB_Stalls_Percent_0_Bucket_1: 330598
Non-critical_ROB_Stalls_Percent_0_Bucket_1: 453377
Critical_ROB_Stalls_Percent_0_Bucket_2: 249324
Non-critical_ROB_Stalls_Percent_0_Bucket_2: 133574
Critical_ROB_Stalls_Percent_0_Bucket_3: 145047
Non-critical_ROB_Stalls_Percent_0_Bucket_3: 48494
Critical_ROB_Stalls_Percent_0_Bucket_4: 56585
Non-critical_ROB_Stalls_Percent_0_Bucket_4: 25326
Critical_ROB_Stalls_Percent_0_Bucket_5: 34545
Non-critical_ROB_Stalls_Percent_0_Bucket_5: 14574
Critical_ROB_Stalls_Percent_0_Bucket_6: 290659
Non-critical_ROB_Stalls_Percent_0_Bucket_6: 41184
Critical_ROB_Stalls_Percent_1_Bucket_0: 412139
Non-critical_ROB_Stalls_Percent_1_Bucket_0: 668326
Critical_ROB_Stalls_Percent_1_Bucket_1: 383661
Non-critical_ROB_Stalls_Percent_1_Bucket_1: 400314
Critical_ROB_Stalls_Percent_1_Bucket_2: 262002
Non-critical_ROB_Stalls_Percent_1_Bucket_2: 120896
Critical_ROB_Stalls_Percent_1_Bucket_3: 150489
Non-critical_ROB_Stalls_Percent_1_Bucket_3: 43052
Critical_ROB_Stalls_Percent_1_Bucket_4: 58857
Non-critical_ROB_Stalls_Percent_1_Bucket_4: 23054
Critical_ROB_Stalls_Percent_1_Bucket_5: 36255
Non-critical_ROB_Stalls_Percent_1_Bucket_5: 12864
Critical_ROB_Stalls_Percent_1_Bucket_6: 294108
Non-critical_ROB_Stalls_Percent_1_Bucket_6: 37735
Critical_ROB_Stalls_Percent_2_Bucket_0: 483563
Non-critical_ROB_Stalls_Percent_2_Bucket_0: 596902
Critical_ROB_Stalls_Percent_2_Bucket_1: 432682
Non-critical_ROB_Stalls_Percent_2_Bucket_1: 351293
Critical_ROB_Stalls_Percent_2_Bucket_2: 274148
Non-critical_ROB_Stalls_Percent_2_Bucket_2: 108750
Critical_ROB_Stalls_Percent_2_Bucket_3: 156168
Non-critical_ROB_Stalls_Percent_2_Bucket_3: 37373
Critical_ROB_Stalls_Percent_2_Bucket_4: 61380
Non-critical_ROB_Stalls_Percent_2_Bucket_4: 20531
Critical_ROB_Stalls_Percent_2_Bucket_5: 37193
Non-critical_ROB_Stalls_Percent_2_Bucket_5: 11926
Critical_ROB_Stalls_Percent_2_Bucket_6: 298533
Non-critical_ROB_Stalls_Percent_2_Bucket_6: 33310
Critical_ROB_Stalls_Percent_3_Bucket_0: 544351
Non-critical_ROB_Stalls_Percent_3_Bucket_0: 536114
Critical_ROB_Stalls_Percent_3_Bucket_1: 485246
Non-critical_ROB_Stalls_Percent_3_Bucket_1: 298729
Critical_ROB_Stalls_Percent_3_Bucket_2: 293223
Non-critical_ROB_Stalls_Percent_3_Bucket_2: 89675
Critical_ROB_Stalls_Percent_3_Bucket_3: 161095
Non-critical_ROB_Stalls_Percent_3_Bucket_3: 32446
Critical_ROB_Stalls_Percent_3_Bucket_4: 64360
Non-critical_ROB_Stalls_Percent_3_Bucket_4: 17551
Critical_ROB_Stalls_Percent_3_Bucket_5: 38567
Non-critical_ROB_Stalls_Percent_3_Bucket_5: 10552
Critical_ROB_Stalls_Percent_3_Bucket_6: 301770
Non-critical_ROB_Stalls_Percent_3_Bucket_6: 30073
Critical_ROB_Stalls_Percent_4_Bucket_0: 606103
Non-critical_ROB_Stalls_Percent_4_Bucket_0: 474362
Critical_ROB_Stalls_Percent_4_Bucket_1: 533561
Non-critical_ROB_Stalls_Percent_4_Bucket_1: 250414
Critical_ROB_Stalls_Percent_4_Bucket_2: 307601
Non-critical_ROB_Stalls_Percent_4_Bucket_2: 75297
Critical_ROB_Stalls_Percent_4_Bucket_3: 166408
Non-critical_ROB_Stalls_Percent_4_Bucket_3: 27133
Critical_ROB_Stalls_Percent_4_Bucket_4: 68428
Non-critical_ROB_Stalls_Percent_4_Bucket_4: 13483
Critical_ROB_Stalls_Percent_4_Bucket_5: 41262
Non-critical_ROB_Stalls_Percent_4_Bucket_5: 7857
Critical_ROB_Stalls_Percent_4_Bucket_6: 309558
Non-critical_ROB_Stalls_Percent_4_Bucket_6: 22285
Critical_ROB_Stalls_Percent_5_Bucket_0: 686758
Non-critical_ROB_Stalls_Percent_5_Bucket_0: 393707
Critical_ROB_Stalls_Percent_5_Bucket_1: 574490
Non-critical_ROB_Stalls_Percent_5_Bucket_1: 209485
Critical_ROB_Stalls_Percent_5_Bucket_2: 319359
Non-critical_ROB_Stalls_Percent_5_Bucket_2: 63539
Critical_ROB_Stalls_Percent_5_Bucket_3: 170254
Non-critical_ROB_Stalls_Percent_5_Bucket_3: 23287
Critical_ROB_Stalls_Percent_5_Bucket_4: 71544
Non-critical_ROB_Stalls_Percent_5_Bucket_4: 10367
Critical_ROB_Stalls_Percent_5_Bucket_5: 43126
Non-critical_ROB_Stalls_Percent_5_Bucket_5: 5993
Critical_ROB_Stalls_Percent_5_Bucket_6: 312329
Non-critical_ROB_Stalls_Percent_5_Bucket_6: 19514
Critical_ROB_Stalls_Percent_6_Bucket_0: 754406
Non-critical_ROB_Stalls_Percent_6_Bucket_0: 326059
Critical_ROB_Stalls_Percent_6_Bucket_1: 626551
Non-critical_ROB_Stalls_Percent_6_Bucket_1: 157424
Critical_ROB_Stalls_Percent_6_Bucket_2: 332925
Non-critical_ROB_Stalls_Percent_6_Bucket_2: 49973
Critical_ROB_Stalls_Percent_6_Bucket_3: 174936
Non-critical_ROB_Stalls_Percent_6_Bucket_3: 18605
Critical_ROB_Stalls_Percent_6_Bucket_4: 73675
Non-critical_ROB_Stalls_Percent_6_Bucket_4: 8236
Critical_ROB_Stalls_Percent_6_Bucket_5: 44258
Non-critical_ROB_Stalls_Percent_6_Bucket_5: 4861
Critical_ROB_Stalls_Percent_6_Bucket_6: 316782
Non-critical_ROB_Stalls_Percent_6_Bucket_6: 15061
Critical_ROB_Stalls_Percent_7_Bucket_0: 841103
Non-critical_ROB_Stalls_Percent_7_Bucket_0: 239362
Critical_ROB_Stalls_Percent_7_Bucket_1: 664180
Non-critical_ROB_Stalls_Percent_7_Bucket_1: 119795
Critical_ROB_Stalls_Percent_7_Bucket_2: 342471
Non-critical_ROB_Stalls_Percent_7_Bucket_2: 40427
Critical_ROB_Stalls_Percent_7_Bucket_3: 178962
Non-critical_ROB_Stalls_Percent_7_Bucket_3: 14579
Critical_ROB_Stalls_Percent_7_Bucket_4: 75727
Non-critical_ROB_Stalls_Percent_7_Bucket_4: 6184
Critical_ROB_Stalls_Percent_7_Bucket_5: 45296
Non-critical_ROB_Stalls_Percent_7_Bucket_5: 3823
Critical_ROB_Stalls_Percent_7_Bucket_6: 320694
Non-critical_ROB_Stalls_Percent_7_Bucket_6: 11149
Critical_ROB_Stalls_Percent_8_Bucket_0: 917103
Non-critical_ROB_Stalls_Percent_8_Bucket_0: 163362
Critical_ROB_Stalls_Percent_8_Bucket_1: 704181
Non-critical_ROB_Stalls_Percent_8_Bucket_1: 79794
Critical_ROB_Stalls_Percent_8_Bucket_2: 357916
Non-critical_ROB_Stalls_Percent_8_Bucket_2: 24982
Critical_ROB_Stalls_Percent_8_Bucket_3: 184795
Non-critical_ROB_Stalls_Percent_8_Bucket_3: 8746
Critical_ROB_Stalls_Percent_8_Bucket_4: 78284
Non-critical_ROB_Stalls_Percent_8_Bucket_4: 3627
Critical_ROB_Stalls_Percent_8_Bucket_5: 46761
Non-critical_ROB_Stalls_Percent_8_Bucket_5: 2358
Critical_ROB_Stalls_Percent_8_Bucket_6: 324551
Non-critical_ROB_Stalls_Percent_8_Bucket_6: 7292
Average ROB occupancy Load Stall Begin: 99.2455
Average ROB occupancy Load Stall End: 108.355
Min ROB occupancy Load Stall Begin: 1
Max ROB occupancy Load Stall Begin: 352
Min ROB occupancy Load Stall End: 1
Max ROB occupancy Load Stall End: 352
Average ROB occupancy Critical Load Stall Begin: -nan
Average ROB occupancy Critical Load Stall End: -nan
Min ROB occupancy Critical Load Stall Begin: 400
Max ROB occupancy Critical Load Stall Begin: 0
Min ROB occupancy Critical Load Stall End: 400
Max ROB occupancy Critical Load Stall End: 0
 ROB Load Stall Begin Bucket Count 0: 1338352
 ROB Load Stall End Bucket Count 0: 1080465
 ROB Critical Load Stall Begin Bucket Count 0: 0
 ROB Critical Load Stall End Bucket Count 0: 0
 ROB Load Stall Begin Bucket Count 1: 635032
 ROB Load Stall End Bucket Count 1: 783975
 ROB Critical Load Stall Begin Bucket Count 1: 0
 ROB Critical Load Stall End Bucket Count 1: 0
 ROB Load Stall Begin Bucket Count 2: 332633
 ROB Load Stall End Bucket Count 2: 382898
 ROB Critical Load Stall Begin Bucket Count 2: 0
 ROB Critical Load Stall End Bucket Count 2: 0
 ROB Load Stall Begin Bucket Count 3: 161342
 ROB Load Stall End Bucket Count 3: 193541
 ROB Critical Load Stall Begin Bucket Count 3: 0
 ROB Critical Load Stall End Bucket Count 3: 0
 ROB Load Stall Begin Bucket Count 4: 70027
 ROB Load Stall End Bucket Count 4: 81911
 ROB Critical Load Stall Begin Bucket Count 4: 0
 ROB Critical Load Stall End Bucket Count 4: 0
 ROB Load Stall Begin Bucket Count 5: 43703
 ROB Load Stall End Bucket Count 5: 49119
 ROB Critical Load Stall Begin Bucket Count 5: 0
 ROB Critical Load Stall End Bucket Count 5: 0
 ROB Load Stall Begin Bucket Count 6: 322663
 ROB Load Stall End Bucket Count 6: 331843
 ROB Critical Load Stall Begin Bucket Count 6: 0
 ROB Critical Load Stall End Bucket Count 6: 0
PIST Tag Read Accesses: 2187916
PIST Read Accesses: 1093958
PIST Tag Write Accesses: 2187916
PIST Write Accesses: 1093958
Criticality detector called times: 1884141
Max global_stall_cycles_count: 4462973
Threshold Modified: 1 times, factor: -1
Sturdy critical IP cache stats: 
 Unused entries: 0
CIC Tag Read Accesses: 0
CIC Read Accesses: 0
CIC Tag Write Accesses: 0
CIC Write Accesses: 0
Wobbly critical IP cache stats: 
 Unused entries: 14
CIC Tag Read Accesses: 89223274
CIC Read Accesses: 0
CIC Tag Write Accesses: 323248
CIC Write Accesses: 0
ITLB TOTAL     ACCESS:    8768820  HIT:    8588409  MISS:     180411  HIT %:    97.9426  MISS %:    2.05741   MPKI: 3.60822
ITLB LOAD TRANSLATION ACCESS:    8156208  HIT:    8142564  MISS:      13644  HIT %:    99.8327  MISS %:   0.167284   MPKI: 0.27288
ITLB TRANSLATION FROM L1D PREFETCHER ACCESS:     612612  HIT:     445845  MISS:     166767  HIT %:    72.7777  MISS %:    27.2223   MPKI: 3.33534
ITLB PREFETCH  REQUESTED:          0  ISSUED:          0  USEFUL:     141735  USELESS:      25035
ITLB USEFUL LOAD PREFETCHES:     141735 PREFETCH ISSUED TO LOWER LEVEL:          0  ACCURACY: inf
ITLB TIMELY PREFETCHES:     141735 LATE PREFETCHES: 36 DROPPED PREFETCHES: 16
ITLB PREFETCHES SAME FILL-ORIGIN LEVEL: 0 DIFFERENT FILL-ORIGIN LEVEL: 0
ITLB AVERAGE MISS LATENCY: 6357.64 cycles
ITLB RQ	ACCESS:   11231761	FORWARD:          0	MERGED:    2450635	TO_CACHE:    8781126

DTLB TOTAL     ACCESS:   11619616  HIT:   11302695  MISS:     316921  HIT %:    97.2725  MISS %:    2.72747   MPKI: 6.33842
DTLB LOAD TRANSLATION ACCESS:   11619616  HIT:   11302695  MISS:     316921  HIT %:    97.2725  MISS %:    2.72747   MPKI: 6.33842
DTLB PREFETCH  REQUESTED:          0  ISSUED:          0  USEFUL:          0  USELESS:          0
DTLB USEFUL LOAD PREFETCHES:          0 PREFETCH ISSUED TO LOWER LEVEL:          0  ACCURACY: -nan
DTLB TIMELY PREFETCHES:          0 LATE PREFETCHES: 0 DROPPED PREFETCHES: 0
DTLB PREFETCHES SAME FILL-ORIGIN LEVEL: 0 DIFFERENT FILL-ORIGIN LEVEL: 0
DTLB AVERAGE MISS LATENCY: 10.3649 cycles
DTLB RQ	ACCESS:   13881644	FORWARD:          0	MERGED:    2245791	TO_CACHE:   11635853

STLB TOTAL     ACCESS:     697815  HIT:     693635  MISS:       4180  HIT %:     99.401  MISS %:   0.599013   MPKI: 0.0836
STLB LOAD TRANSLATION ACCESS:     330529  HIT:     326625  MISS:       3904  HIT %:    98.8189  MISS %:    1.18114   MPKI: 0.07808
STLB TRANSLATION FROM L1D PREFETCHER ACCESS:     367286  HIT:     367010  MISS:        276  HIT %:    99.9249  MISS %:  0.0751458   MPKI: 0.00552
STLB PREFETCH  REQUESTED:          0  ISSUED:          0  USEFUL:        217  USELESS:         49
STLB USEFUL LOAD PREFETCHES:        217 PREFETCH ISSUED TO LOWER LEVEL:          0  ACCURACY: inf
STLB TIMELY PREFETCHES:        217 LATE PREFETCHES: 0 DROPPED PREFETCHES: 16
STLB PREFETCHES SAME FILL-ORIGIN LEVEL: 0 DIFFERENT FILL-ORIGIN LEVEL: 0
STLB AVERAGE MISS LATENCY: 126.582 cycles
STLB RQ	ACCESS:     822753	FORWARD:          0	MERGED:     124922	TO_CACHE:     697831

STLB Hit, L1D data hit: 0
STLB Hit, L2C data hit: 0
STLB Hit, LLC data hit: 0
STLB Hit, LLC data miss: 0
STLB STLB hints to L2: 0
L1D TOTAL     ACCESS:   14029502  HIT:   13328241  MISS:     701261  HIT %:    95.0015  MISS %:    4.99847   MPKI: 14.0252
L1D LOAD      ACCESS:    8789536  HIT:    8292925  MISS:     496611  HIT %:      94.35  MISS %:    5.65003   MPKI: 9.93222
L1D RFO       ACCESS:    4923883  HIT:    4847017  MISS:      76866  HIT %:    98.4389  MISS %:    1.56109   MPKI: 1.53732
L1D PREFETCH  ACCESS:     316083  HIT:     188299  MISS:     127784  HIT %:    59.5726  MISS %:    40.4274   MPKI: 2.55568
L1D PREFETCH  REQUESTED:     650811  ISSUED:     650811  USEFUL:      42573  USELESS:      85246
L1D USEFUL LOAD PREFETCHES:      42573 PREFETCH ISSUED TO LOWER LEVEL:     132860  ACCURACY: 32.0435
L1D TIMELY PREFETCHES:      42573 LATE PREFETCHES: 4610 DROPPED PREFETCHES: 0
L1D PREFETCHES SAME FILL-ORIGIN LEVEL: 132860 DIFFERENT FILL-ORIGIN LEVEL: 0
L1D AVERAGE MISS LATENCY: 346307 cycles
L1D RQ	ACCESS:   12805728	FORWARD:          0	MERGED:    3876456	TO_CACHE:    8843837
L1D WQ	ACCESS:    5437654	FORWARD:      85436	MERGED:     399847	TO_CACHE:    5037807
L1D PQ	ACCESS:     325406	FORWARD:          0	MERGED:          0	TO_CACHE:     325405

L1D UNIQUE REGIONS ACCESSED: 0
L1D REGIONS CONFLICTS: 0
L1D Cross Page Prefetch Requests: 0
L1D Same Page Prefetch Requests: 1344626
L1D ROI Sum of L1D PQ occupancy: 4284891
L1D PREFETCHES PUSHED FROM L2C: 0
L1I TOTAL     ACCESS:   11200004  HIT:   10034300  MISS:    1165704  HIT %:    89.5919  MISS %:    10.4081   MPKI: 23.3141
L1I LOAD      ACCESS:    9645633  HIT:    9595339  MISS:      50294  HIT %:    99.4786  MISS %:   0.521417   MPKI: 1.00588
L1I PREFETCH  ACCESS:    1554371  HIT:     438961  MISS:    1115410  HIT %:    28.2404  MISS %:    71.7596   MPKI: 22.3082
L1I PREFETCH  REQUESTED:    1608309  ISSUED:    1607587  USEFUL:     838668  USELESS:     276800
L1I USEFUL LOAD PREFETCHES:     838668 PREFETCH ISSUED TO LOWER LEVEL:    1122645  ACCURACY: 74.7046
L1I TIMELY PREFETCHES:     838668 LATE PREFETCHES: 7235 DROPPED PREFETCHES: 21
L1I PREFETCHES SAME FILL-ORIGIN LEVEL: 1122645 DIFFERENT FILL-ORIGIN LEVEL: 0
L1I AVERAGE MISS LATENCY: 275538 cycles
L1I RQ	ACCESS:   14354722	FORWARD:          0	MERGED:    4701350	TO_CACHE:    9653372
L1I PQ	ACCESS:    1607587	FORWARD:          0	MERGED:      29198	TO_CACHE:    1578389

BTB TOTAL     ACCESS:    6145704  HIT:    5759281  MISS:     386423  HIT %:    93.7123  MISS %:    6.28769   MPKI: 7.72846
BTB BRANCH_DIRECT_JUMP	ACCESS:     735331  HIT:     732025  MISS:       3306
BTB BRANCH_INDIRECT	ACCESS:     269194  HIT:     145703  MISS:     123491
BTB BRANCH_CONDITIONAL	ACCESS:    3930750  HIT:    3920624  MISS:      10126
BTB BRANCH_DIRECT_CALL	ACCESS:     368758  HIT:     363374  MISS:       5384
BTB BRANCH_INDIRECT_CALL	ACCESS:     226975  HIT:     162973  MISS:      64002
BTB BRANCH_RETURN	ACCESS:     614696  HIT:     434582  MISS:     180114
BTB BRANCH_OTHER ACCESS:          0  HIT:          0  MISS:          0

L2C TOTAL     ACCESS:    2107833  HIT:    1922829  MISS:     185004  HIT %:     91.223  MISS %:    8.77698   MPKI: 3.70008
L2C LOAD      ACCESS:     534942  HIT:     426673  MISS:     108269  HIT %:    79.7606  MISS %:    20.2394   MPKI: 2.16538
L2C DATA LOAD MPKI: 2.08052
L2C INSTRUCTION LOAD MPKI: 0.08486
L2C RFO       ACCESS:      76390  HIT:      31720  MISS:      44670  HIT %:    41.5238  MISS %:    58.4762   MPKI: 0.8934
L2C PREFETCH  ACCESS:    1255505  HIT:    1227154  MISS:      28351  HIT %:    97.7419  MISS %:    2.25814   MPKI: 0.56702
L2C DATA PREFETCH MPKI: 0.39766
L2C INSTRUCTION PREFETCH MPKI: 0.16936
L2C WRITEBACK ACCESS:     236607  HIT:     234661  MISS:       1946  HIT %:    99.1775  MISS %:   0.822461   MPKI: 0.03892
L2C LOAD TRANSLATION ACCESS:       4076  HIT:       2501  MISS:       1575  HIT %:    61.3592  MISS %:    38.6408   MPKI: 0.0315
L2C TRANSLATION FROM L1D PREFETCHER ACCESS:        313  HIT:        120  MISS:        193  HIT %:    38.3387  MISS %:    61.6613   MPKI: 0.00386
L2C PREFETCH  REQUESTED:          0  ISSUED:          0  USEFUL:       3470  USELESS:      27315
L2C USEFUL LOAD PREFETCHES:       3470 PREFETCH ISSUED TO LOWER LEVEL:      28351  ACCURACY: 12.2394
L2C TIMELY PREFETCHES:       3470 LATE PREFETCHES: 0 DROPPED PREFETCHES: 0
L2C PREFETCHES SAME FILL-ORIGIN LEVEL: 0 DIFFERENT FILL-ORIGIN LEVEL: 0
L2C AVERAGE MISS LATENCY: 148.038 cycles
L2C RQ	ACCESS:     615849	FORWARD:          0	MERGED:          0	TO_CACHE:     615721
L2C WQ	ACCESS:     236607	FORWARD:        128	MERGED:          0	TO_CACHE:     236607
L2C PQ	ACCESS:    1255505	FORWARD:          0	MERGED:          0	TO_CACHE:    1255505

L2C Instructions Evicting Data 9397
L2C Translations Evicting Data 1433
L2C Data Evicting Data 154863
L2C Instructions Evicting Instructions 3005
L2C Translations Evicting Instructions 309
L2C Data Evicting Instructions 12140
L2C Instructions Evicting Translations 309
L2C Translations Evicting Translations 26
L2C Data Evicting Translations 1576
L2C Dense regions hint from L2: 0
PSCL5 TOTAL     ACCESS:       4196  HIT:       4196  MISS:          0  HIT %:        100  MISS %:          0   MPKI: 0
PSCL5 LOAD TRANSLATION ACCESS:       3904  HIT:       3904  MISS:          0  HIT %:        100  MISS %:          0   MPKI: 0
PSCL5 TRANSLATION FROM L1D PREFETCHER ACCESS:        292  HIT:        292  MISS:          0  HIT %:        100  MISS %:          0   MPKI: 0
PSCL5 PREFETCH  REQUESTED:          0  ISSUED:          0  USEFUL:          0  USELESS:          0
PSCL5 USEFUL LOAD PREFETCHES:          0 PREFETCH ISSUED TO LOWER LEVEL:          0  ACCURACY: -nan
PSCL5 TIMELY PREFETCHES:          0 LATE PREFETCHES: 0 DROPPED PREFETCHES: 0
PSCL5 PREFETCHES SAME FILL-ORIGIN LEVEL: 0 DIFFERENT FILL-ORIGIN LEVEL: 0

PSCL4 TOTAL     ACCESS:       3914  HIT:       3907  MISS:          7  HIT %:    99.8212  MISS %:   0.178845   MPKI: 0.00014
PSCL4 LOAD TRANSLATION ACCESS:       3643  HIT:       3636  MISS:          7  HIT %:    99.8079  MISS %:   0.192149   MPKI: 0.00014
PSCL4 TRANSLATION FROM L1D PREFETCHER ACCESS:        271  HIT:        271  MISS:          0  HIT %:        100  MISS %:          0   MPKI: 0
PSCL4 PREFETCH  REQUESTED:          0  ISSUED:          0  USEFUL:          0  USELESS:          0
PSCL4 USEFUL LOAD PREFETCHES:          0 PREFETCH ISSUED TO LOWER LEVEL:          0  ACCURACY: -nan
PSCL4 TIMELY PREFETCHES:          0 LATE PREFETCHES: 0 DROPPED PREFETCHES: 0
PSCL4 PREFETCHES SAME FILL-ORIGIN LEVEL: 0 DIFFERENT FILL-ORIGIN LEVEL: 0

PSCL3 TOTAL     ACCESS:       4141  HIT:       4124  MISS:         17  HIT %:    99.5895  MISS %:   0.410529   MPKI: 0.00034
PSCL3 LOAD TRANSLATION ACCESS:       3857  HIT:       3840  MISS:         17  HIT %:    99.5592  MISS %:   0.440757   MPKI: 0.00034
PSCL3 TRANSLATION FROM L1D PREFETCHER ACCESS:        284  HIT:        284  MISS:          0  HIT %:        100  MISS %:          0   MPKI: 0
PSCL3 PREFETCH  REQUESTED:          0  ISSUED:          0  USEFUL:          0  USELESS:          0
PSCL3 USEFUL LOAD PREFETCHES:          0 PREFETCH ISSUED TO LOWER LEVEL:          0  ACCURACY: -nan
PSCL3 TIMELY PREFETCHES:          0 LATE PREFETCHES: 0 DROPPED PREFETCHES: 0
PSCL3 PREFETCHES SAME FILL-ORIGIN LEVEL: 0 DIFFERENT FILL-ORIGIN LEVEL: 0

PSCL2 TOTAL     ACCESS:       4196  HIT:       4022  MISS:        174  HIT %:    95.8532  MISS %:    4.14681   MPKI: 0.00348
PSCL2 LOAD TRANSLATION ACCESS:       3921  HIT:       3747  MISS:        174  HIT %:    95.5624  MISS %:    4.43764   MPKI: 0.00348
PSCL2 TRANSLATION FROM L1D PREFETCHER ACCESS:        275  HIT:        275  MISS:          0  HIT %:        100  MISS %:          0   MPKI: 0
PSCL2 PREFETCH  REQUESTED:          0  ISSUED:          0  USEFUL:          0  USELESS:          0
PSCL2 USEFUL LOAD PREFETCHES:          0 PREFETCH ISSUED TO LOWER LEVEL:          0  ACCURACY: -nan
PSCL2 TIMELY PREFETCHES:          0 LATE PREFETCHES: 0 DROPPED PREFETCHES: 0
PSCL2 PREFETCHES SAME FILL-ORIGIN LEVEL: 0 DIFFERENT FILL-ORIGIN LEVEL: 0

LLC TOTAL     ACCESS:     251791  HIT:     118103  MISS:     133688  HIT %:    46.9052  MISS %:    53.0948   MPKI: 2.67376
LLC LOAD      ACCESS:     108269  HIT:      36987  MISS:      71282  HIT %:    34.1621  MISS %:    65.8379   MPKI: 1.42564
LLC RFO       ACCESS:      44670  HIT:       4804  MISS:      39866  HIT %:    10.7544  MISS %:    89.2456   MPKI: 0.79732
LLC PREFETCH  ACCESS:      28351  HIT:       9871  MISS:      18480  HIT %:    34.8171  MISS %:    65.1829   MPKI: 0.3696
LLC WRITEBACK ACCESS:      68733  HIT:      65795  MISS:       2938  HIT %:    95.7255  MISS %:    4.27451   MPKI: 0.05876
LLC LOAD TRANSLATION ACCESS:       1575  HIT:        564  MISS:       1011  HIT %:    35.8095  MISS %:    64.1905   MPKI: 0.02022
LLC TRANSLATION FROM L1D PREFETCHER ACCESS:        193  HIT:         82  MISS:        111  HIT %:     42.487  MISS %:     57.513   MPKI: 0.00222
LLC PREFETCH  REQUESTED:          0  ISSUED:          0  USEFUL:       2697  USELESS:      21933
LLC USEFUL LOAD PREFETCHES:       2697 PREFETCH ISSUED TO LOWER LEVEL:      18480  ACCURACY: 14.5942
LLC TIMELY PREFETCHES:       2697 LATE PREFETCHES: 0 DROPPED PREFETCHES: 0
LLC PREFETCHES SAME FILL-ORIGIN LEVEL: 0 DIFFERENT FILL-ORIGIN LEVEL: 0
LLC AVERAGE MISS LATENCY: 163.074 cycles
LLC RQ	ACCESS:     154707	FORWARD:          0	MERGED:          0	TO_CACHE:     154707
LLC WQ	ACCESS:      68733	FORWARD:          0	MERGED:          0	TO_CACHE:      68733
LLC PQ	ACCESS:      28351	FORWARD:          0	MERGED:          0	TO_CACHE:      28351

LLC Dense regions hint to LLC: 0

RAW hits: 1074207
Loads Generated: 13879936
Loads sent to L1D: 12805728
Stores Generated: 5437650
Stores sent to L1D: 5437654
Major fault: 0 Minor fault: 4494
Allocated PAGES: 4494
I-Shadow cache 408 bytes
Touched + WorthPF tables 6144 bytes 
MMA filter 174 bytes 
FNL filter 272 bytes 
TOTAL PREFETCHER STORAGE SIZE: 25174 bytes
CPU 0 L1I next line prefetcher final stats

stream: 
stream:times selected: 1624536
stream:pref_filled: 294182
stream:pref_useful: 50577
stream:pref_late: 7678
stream:misses: 43084
stream:misses_by_poll: 0

CS: 
CS:times selected: 284519
CS:pref_filled: 119063
CS:pref_useful: 99102
CS:pref_late: 2572
CS:misses: 50014
CS:misses_by_poll: 22

CPLX: 
CPLX:times selected: 1331313
CPLX:pref_filled: 92982
CPLX:pref_useful: 18221
CPLX:pref_late: 2944
CPLX:misses: 182257
CPLX:misses_by_poll: 18

NL_L1: 
NL:times selected: 7649
NL:pref_filled: 1812
NL:pref_useful: 543
NL:pref_late: 21
NL:misses: 1336
NL:misses_by_poll: 0

total selections: 3248017
total_filled: 127784
total_useful: 42573
total_late: 14537
total_polluted: 40
total_misses_after_warmup: 550912
conflicts: 2943625
Degree Incremented Times: 43635
Degree Decremented Times: 241617

L1 IP Table Write Accesses: 5380369
L1 IP Table Read Accesses: 2436744
L1 RST Write Accesses: 535304
L1 RST Read Accesses: 1070608
L1 CSPT Write Accesses: 535304
L1 CSPT Read Accesses: 928409
L1 RR Filter Tag Write Accesses: 325406
L1 RR Filter Tag Read Accesses: 16556823
L1 IP Table Tag Write Accesses: 8843837
L1 IP Table Tag Read Accesses: 8843837
L1 RST Tag Write Accesses: 0
L1 RST Tag Read Accesses: 5145866
L1 RR Filter Write Accesses: 0
L1 RR Filter Read Accesses: 563235
test: 507781

DRAM Statistics
 CHANNEL 0
 RQ ROW_BUFFER_HIT:      26854  ROW_BUFFER_MISS:     103895
 DBUS_CONGESTED:         57
 WQ ROW_BUFFER_HIT:      11122  ROW_BUFFER_MISS:      46918  FULL:          0

 AVG_CONGESTED_CYCLE: 4
 All warmup complete: 2
Channel 0 Bank busy for read cycles: 0
Channel 0 Bank busy for write cycles: 0
Channel 0
Rank 0
0banks busy for read cycles: 54755063
0banks busy for write cycles: 22046
1banks busy for read cycles: 7292827
1banks busy for write cycles: 3207206
2banks busy for read cycles: 2216893
2banks busy for write cycles: 1107116
3banks busy for read cycles: 762244
3banks busy for write cycles: 514753
4banks busy for read cycles: 238301
4banks busy for write cycles: 264042
5banks busy for read cycles: 122397
5banks busy for write cycles: 159649
6banks busy for read cycles: 63413
6banks busy for write cycles: 99557
7banks busy for read cycles: 42914
7banks busy for write cycles: 83099
8banks busy for read cycles: 86794
8banks busy for write cycles: 338863

CPU 0 Branch Prediction Accuracy: 98.8607% MPKI: 1.8623 Average ROB Occupancy at Mispredict: 73.9749
Branch types
NOT_BRANCH: 41826774 83.6535%
BRANCH_DIRECT_JUMP: 735331 1.47066%
BRANCH_INDIRECT: 269194 0.538388%
BRANCH_CONDITIONAL: 5957947 11.9159%
BRANCH_DIRECT_CALL: 368758 0.737516%
BRANCH_INDIRECT_CALL: 226975 0.45395%
BRANCH_RETURN: 614696 1.22939%
BRANCH_OTHER: 0 0%

DRAM PAGES: 1048576
Allocated PAGES: 4494
