
*** ChampSim Multicore Out-of-Order Simulator ***

Warmup Instructions: 50000000
Simulation Instructions: 50000000
Number of CPUs: 1
LLC sets: 2048
LLC ways: 16
Off-chip DRAM Size: 4096 MB Channels: 1 Width: 64-bit Data Rate: 6400 MT/s
CPU 0 runs ../IPC-traces//client_003.champsimtrace.xz
.xz
NUM_OF_IPS_IN_CRITICAL_IP_TRAINING: 64
NUM_OF_CRITICAL_IP_TRAINING_TABLE_WAYS: 2
NUM_OF_CRITICAL_IP_TRAINING_TABLE_SETS: 32
WOBBLY_CRITICAL_IP_CACHE_SETS: 32
WOBBLY_CRITICAL_IP_CACHE_WAYS: 4
BTB has LRU replacement policy
ITLB has LRU replacement policy
DTLB has LRU replacement policy
STLB has LRU replacement policy
CPU 0 L1I next line prefetcher
L1I has LRU replacement policy
IP Table Entries: 64
L1D has LRU replacement policy
Initialize SRRIP state for L2C
Initialize DRRIP state for LLC
Heartbeat CPU 0 instructions: 10000000 cycles: 2804601 heartbeat IPC: 3.56557 cumulative IPC: 3.56557 (Simulation time: 0 hr 4 min 35 sec) 
Heartbeat CPU 0 instructions: 20000000 cycles: 5608232 heartbeat IPC: 3.5668 cumulative IPC: 3.56619 (Simulation time: 0 hr 9 min 12 sec) 
Heartbeat CPU 0 instructions: 30000003 cycles: 8417608 heartbeat IPC: 3.55951 cumulative IPC: 3.56396 (Simulation time: 0 hr 13 min 37 sec) 
Heartbeat CPU 0 instructions: 40000001 cycles: 11235326 heartbeat IPC: 3.54897 cumulative IPC: 3.5602 (Simulation time: 0 hr 17 min 48 sec) 
Heartbeat CPU 0 instructions: 50000002 cycles: 14055780 heartbeat IPC: 3.54553 cumulative IPC: 3.55726 (Simulation time: 0 hr 21 min 50 sec) 

Warmup complete CPU 0 instructions: 50000002 cycles: 14055780 (Simulation time: 0 hr 21 min 50 sec) 

% increase in all ip prefetch 307.505
% increase in all ip prefetch 1.86784
Heartbeat CPU 0 instructions: 60000002 cycles: 27033647 heartbeat IPC: 0.770543 cumulative IPC: 0.770543 (Simulation time: 0 hr 25 min 23 sec) 
Heartbeat CPU 0 instructions: 70000001 cycles: 39623819 heartbeat IPC: 0.79427 cumulative IPC: 0.782227 (Simulation time: 0 hr 28 min 41 sec) 
Heartbeat CPU 0 instructions: 80000001 cycles: 53584009 heartbeat IPC: 0.716323 cumulative IPC: 0.758951 (Simulation time: 0 hr 31 min 56 sec) 
Heartbeat CPU 0 instructions: 90000000 cycles: 68137114 heartbeat IPC: 0.687138 cumulative IPC: 0.739627 (Simulation time: 0 hr 35 min 6 sec) 
Heartbeat CPU 0 instructions: 100000000 cycles: 88163266 heartbeat IPC: 0.499347 cumulative IPC: 0.674696 (Simulation time: 0 hr 39 min 24 sec) 
Finished CPU 0 instructions: 50000002 cycles: 74107488 cumulative IPC: 0.674696 (Simulation time: 0 hr 39 min 24 sec) 

ChampSim completed all CPUs

Region of Interest Statistics

CPU 0 cumulative IPC: 0.674696 instructions: 50000002 cycles: 74107488

CPU 0 Average Load ROB stall cycles: 1.81803e+07
CPU 0 Fraction of times ROB stalled by Loads: 36.2141
CPU 0 Percentage of Load stall cycles in Total stall cycles: 2.65309e+08
Issued all: 39665098
Issued LT all: 34148653
rob_not_full_when_issued_lt_all: 17968824
Issued LT one: 28015541
rob_not_full_when_issued_lt_one: 13662858
 Total stall cycles: 61183584
 Total load stall cycles: 162325811582227
CPU 0 NUM of IPS identified critical: 0
CPU 0 Num of Load IPs stalling ROB: 26816
Threshold modification factor: -1
Max PIST entries: 64
Min PIST entries: 0
Avg PIST entries: 27.26
Trouble in retire width: 0.907281
MaC = Marked as critical.
lt_50_percent_before_Mac: 0
gt_90_percent_before_Mac: 0
gt_75_percent_before_Mac: 0
gt_50_percent_before_Mac: 0
stall_proportion_bin_same_before_after: 0
stall_proportion_bin_lower_before_after: 0
stall_proportion_bin_upper_before_after: 0
average_stall_proportion_before: -nan
average_stall_proportion_after: -nan
Critical IP stalls, total frequency: 0
Non-critical IP stalls, total frequency: 3233442
Total Freq all stalling IPs: 3233442
stat_90_percent_critical_ip_stalls_freq: 2910129
stat_90_percent_non_critical_ip_stalls_freq: 323313
Critical_IP_ROB_Stalls_Bucket_0: 0
Non-critical_IP_ROB_Stalls_Bucket_0: 1433028
Critical_IP_ROB_Stalls_Bucket_1: 0
Non-critical_IP_ROB_Stalls_Bucket_1: 661589
Critical_IP_ROB_Stalls_Bucket_2: 0
Non-critical_IP_ROB_Stalls_Bucket_2: 273588
Critical_IP_ROB_Stalls_Bucket_3: 0
Non-critical_IP_ROB_Stalls_Bucket_3: 91306
Critical_IP_ROB_Stalls_Bucket_4: 0
Non-critical_IP_ROB_Stalls_Bucket_4: 36939
Critical_IP_ROB_Stalls_Bucket_5: 0
Non-critical_IP_ROB_Stalls_Bucket_5: 20100
Critical_IP_ROB_Stalls_Bucket_6: 0
Non-critical_IP_ROB_Stalls_Bucket_6: 716892
0 => IPs accounting for >50 percent of stalls, 1 => 55, 2 => 60, 3 => 65 and so on till 90.
percent50: 50.0129 num IPs:  39
percent55: 55.1313 num IPs: 63
percent60: 60.032 num IPs: 97
percent65: 65.0098 num IPs: 155
percent70: 70.0147 num IPs: 251
percent75: 75.0099 num IPs: 399
percent80: 80.0013 num IPs: 640
percent85: 85.0058 num IPs: 1070
percent90: 90.0009 num IPs: 1860
Critical_ROB_Stalls_Percent_0_Bucket_0: 513428
Non-critical_ROB_Stalls_Percent_0_Bucket_0: 919600
Critical_ROB_Stalls_Percent_0_Bucket_1: 214050
Non-critical_ROB_Stalls_Percent_0_Bucket_1: 447539
Critical_ROB_Stalls_Percent_0_Bucket_2: 115351
Non-critical_ROB_Stalls_Percent_0_Bucket_2: 158237
Critical_ROB_Stalls_Percent_0_Bucket_3: 42351
Non-critical_ROB_Stalls_Percent_0_Bucket_3: 48955
Critical_ROB_Stalls_Percent_0_Bucket_4: 18510
Non-critical_ROB_Stalls_Percent_0_Bucket_4: 18429
Critical_ROB_Stalls_Percent_0_Bucket_5: 11013
Non-critical_ROB_Stalls_Percent_0_Bucket_5: 9087
Critical_ROB_Stalls_Percent_0_Bucket_6: 702434
Non-critical_ROB_Stalls_Percent_0_Bucket_6: 14458
Critical_ROB_Stalls_Percent_1_Bucket_0: 586368
Non-critical_ROB_Stalls_Percent_1_Bucket_0: 846660
Critical_ROB_Stalls_Percent_1_Bucket_1: 275451
Non-critical_ROB_Stalls_Percent_1_Bucket_1: 386138
Critical_ROB_Stalls_Percent_1_Bucket_2: 135561
Non-critical_ROB_Stalls_Percent_1_Bucket_2: 138027
Critical_ROB_Stalls_Percent_1_Bucket_3: 48756
Non-critical_ROB_Stalls_Percent_1_Bucket_3: 42550
Critical_ROB_Stalls_Percent_1_Bucket_4: 21168
Non-critical_ROB_Stalls_Percent_1_Bucket_4: 15771
Critical_ROB_Stalls_Percent_1_Bucket_5: 12012
Non-critical_ROB_Stalls_Percent_1_Bucket_5: 8088
Critical_ROB_Stalls_Percent_1_Bucket_6: 703324
Non-critical_ROB_Stalls_Percent_1_Bucket_6: 13568
Critical_ROB_Stalls_Percent_2_Bucket_0: 652454
Non-critical_ROB_Stalls_Percent_2_Bucket_0: 780574
Critical_ROB_Stalls_Percent_2_Bucket_1: 324429
Non-critical_ROB_Stalls_Percent_2_Bucket_1: 337160
Critical_ROB_Stalls_Percent_2_Bucket_2: 158873
Non-critical_ROB_Stalls_Percent_2_Bucket_2: 114715
Critical_ROB_Stalls_Percent_2_Bucket_3: 56019
Non-critical_ROB_Stalls_Percent_2_Bucket_3: 35287
Critical_ROB_Stalls_Percent_2_Bucket_4: 24839
Non-critical_ROB_Stalls_Percent_2_Bucket_4: 12100
Critical_ROB_Stalls_Percent_2_Bucket_5: 14528
Non-critical_ROB_Stalls_Percent_2_Bucket_5: 5572
Critical_ROB_Stalls_Percent_2_Bucket_6: 709957
Non-critical_ROB_Stalls_Percent_2_Bucket_6: 6935
Critical_ROB_Stalls_Percent_3_Bucket_0: 728075
Non-critical_ROB_Stalls_Percent_3_Bucket_0: 704953
Critical_ROB_Stalls_Percent_3_Bucket_1: 374477
Non-critical_ROB_Stalls_Percent_3_Bucket_1: 287112
Critical_ROB_Stalls_Percent_3_Bucket_2: 181673
Non-critical_ROB_Stalls_Percent_3_Bucket_2: 91915
Critical_ROB_Stalls_Percent_3_Bucket_3: 63988
Non-critical_ROB_Stalls_Percent_3_Bucket_3: 27318
Critical_ROB_Stalls_Percent_3_Bucket_4: 27014
Non-critical_ROB_Stalls_Percent_3_Bucket_4: 9925
Critical_ROB_Stalls_Percent_3_Bucket_5: 15907
Non-critical_ROB_Stalls_Percent_3_Bucket_5: 4193
Critical_ROB_Stalls_Percent_3_Bucket_6: 710919
Non-critical_ROB_Stalls_Percent_3_Bucket_6: 5973
Critical_ROB_Stalls_Percent_4_Bucket_0: 808093
Non-critical_ROB_Stalls_Percent_4_Bucket_0: 624935
Critical_ROB_Stalls_Percent_4_Bucket_1: 431481
Non-critical_ROB_Stalls_Percent_4_Bucket_1: 230108
Critical_ROB_Stalls_Percent_4_Bucket_2: 200819
Non-critical_ROB_Stalls_Percent_4_Bucket_2: 72769
Critical_ROB_Stalls_Percent_4_Bucket_3: 68190
Non-critical_ROB_Stalls_Percent_4_Bucket_3: 23116
Critical_ROB_Stalls_Percent_4_Bucket_4: 27897
Non-critical_ROB_Stalls_Percent_4_Bucket_4: 9042
Critical_ROB_Stalls_Percent_4_Bucket_5: 16197
Non-critical_ROB_Stalls_Percent_4_Bucket_5: 3903
Critical_ROB_Stalls_Percent_4_Bucket_6: 711206
Non-critical_ROB_Stalls_Percent_4_Bucket_6: 5686
Critical_ROB_Stalls_Percent_5_Bucket_0: 892883
Non-critical_ROB_Stalls_Percent_5_Bucket_0: 540145
Critical_ROB_Stalls_Percent_5_Bucket_1: 476804
Non-critical_ROB_Stalls_Percent_5_Bucket_1: 184785
Critical_ROB_Stalls_Percent_5_Bucket_2: 218329
Non-critical_ROB_Stalls_Percent_5_Bucket_2: 55259
Critical_ROB_Stalls_Percent_5_Bucket_3: 75010
Non-critical_ROB_Stalls_Percent_5_Bucket_3: 16296
Critical_ROB_Stalls_Percent_5_Bucket_4: 31524
Non-critical_ROB_Stalls_Percent_5_Bucket_4: 5415
Critical_ROB_Stalls_Percent_5_Bucket_5: 16922
Non-critical_ROB_Stalls_Percent_5_Bucket_5: 3178
Critical_ROB_Stalls_Percent_5_Bucket_6: 713929
Non-critical_ROB_Stalls_Percent_5_Bucket_6: 2963
Critical_ROB_Stalls_Percent_6_Bucket_0: 988772
Non-critical_ROB_Stalls_Percent_6_Bucket_0: 444256
Critical_ROB_Stalls_Percent_6_Bucket_1: 522919
Non-critical_ROB_Stalls_Percent_6_Bucket_1: 138670
Critical_ROB_Stalls_Percent_6_Bucket_2: 230801
Non-critical_ROB_Stalls_Percent_6_Bucket_2: 42787
Critical_ROB_Stalls_Percent_6_Bucket_3: 78074
Non-critical_ROB_Stalls_Percent_6_Bucket_3: 13232
Critical_ROB_Stalls_Percent_6_Bucket_4: 33052
Non-critical_ROB_Stalls_Percent_6_Bucket_4: 3887
Critical_ROB_Stalls_Percent_6_Bucket_5: 18008
Non-critical_ROB_Stalls_Percent_6_Bucket_5: 2092
Critical_ROB_Stalls_Percent_6_Bucket_6: 715168
Non-critical_ROB_Stalls_Percent_6_Bucket_6: 1724
Critical_ROB_Stalls_Percent_7_Bucket_0: 1084305
Non-critical_ROB_Stalls_Percent_7_Bucket_0: 348723
Critical_ROB_Stalls_Percent_7_Bucket_1: 566967
Non-critical_ROB_Stalls_Percent_7_Bucket_1: 94622
Critical_ROB_Stalls_Percent_7_Bucket_2: 244984
Non-critical_ROB_Stalls_Percent_7_Bucket_2: 28604
Critical_ROB_Stalls_Percent_7_Bucket_3: 83548
Non-critical_ROB_Stalls_Percent_7_Bucket_3: 7758
Critical_ROB_Stalls_Percent_7_Bucket_4: 34667
Non-critical_ROB_Stalls_Percent_7_Bucket_4: 2272
Critical_ROB_Stalls_Percent_7_Bucket_5: 18541
Non-critical_ROB_Stalls_Percent_7_Bucket_5: 1559
Critical_ROB_Stalls_Percent_7_Bucket_6: 715604
Non-critical_ROB_Stalls_Percent_7_Bucket_6: 1288
Critical_ROB_Stalls_Percent_8_Bucket_0: 1185865
Non-critical_ROB_Stalls_Percent_8_Bucket_0: 247163
Critical_ROB_Stalls_Percent_8_Bucket_1: 607759
Non-critical_ROB_Stalls_Percent_8_Bucket_1: 53830
Critical_ROB_Stalls_Percent_8_Bucket_2: 258397
Non-critical_ROB_Stalls_Percent_8_Bucket_2: 15191
Critical_ROB_Stalls_Percent_8_Bucket_3: 86853
Non-critical_ROB_Stalls_Percent_8_Bucket_3: 4453
Critical_ROB_Stalls_Percent_8_Bucket_4: 35639
Non-critical_ROB_Stalls_Percent_8_Bucket_4: 1300
Critical_ROB_Stalls_Percent_8_Bucket_5: 19505
Non-critical_ROB_Stalls_Percent_8_Bucket_5: 595
Critical_ROB_Stalls_Percent_8_Bucket_6: 716111
Non-critical_ROB_Stalls_Percent_8_Bucket_6: 781
Average ROB occupancy Load Stall Begin: 116.891
Average ROB occupancy Load Stall End: 124.333
Min ROB occupancy Load Stall Begin: 1
Max ROB occupancy Load Stall Begin: 352
Min ROB occupancy Load Stall End: 1
Max ROB occupancy Load Stall End: 352
Average ROB occupancy Critical Load Stall Begin: -nan
Average ROB occupancy Critical Load Stall End: -nan
Min ROB occupancy Critical Load Stall Begin: 400
Max ROB occupancy Critical Load Stall Begin: 0
Min ROB occupancy Critical Load Stall End: 400
Max ROB occupancy Critical Load Stall End: 0
 ROB Load Stall Begin Bucket Count 0: 1647026
 ROB Load Stall End Bucket Count 0: 1433028
 ROB Critical Load Stall Begin Bucket Count 0: 0
 ROB Critical Load Stall End Bucket Count 0: 0
 ROB Load Stall Begin Bucket Count 1: 532328
 ROB Load Stall End Bucket Count 1: 661589
 ROB Critical Load Stall Begin Bucket Count 1: 0
 ROB Critical Load Stall End Bucket Count 1: 0
 ROB Load Stall Begin Bucket Count 2: 220233
 ROB Load Stall End Bucket Count 2: 273588
 ROB Critical Load Stall Begin Bucket Count 2: 0
 ROB Critical Load Stall End Bucket Count 2: 0
 ROB Load Stall Begin Bucket Count 3: 72302
 ROB Load Stall End Bucket Count 3: 91306
 ROB Critical Load Stall Begin Bucket Count 3: 0
 ROB Critical Load Stall End Bucket Count 3: 0
 ROB Load Stall Begin Bucket Count 4: 29728
 ROB Load Stall End Bucket Count 4: 36939
 ROB Critical Load Stall Begin Bucket Count 4: 0
 ROB Critical Load Stall End Bucket Count 4: 0
 ROB Load Stall Begin Bucket Count 5: 19062
 ROB Load Stall End Bucket Count 5: 20100
 ROB Critical Load Stall Begin Bucket Count 5: 0
 ROB Critical Load Stall End Bucket Count 5: 0
 ROB Load Stall Begin Bucket Count 6: 712763
 ROB Load Stall End Bucket Count 6: 716892
 ROB Critical Load Stall Begin Bucket Count 6: 0
 ROB Critical Load Stall End Bucket Count 6: 0
PIST Tag Read Accesses: 2325024
PIST Read Accesses: 1162512
PIST Tag Write Accesses: 2325024
PIST Write Accesses: 1162512
Criticality detector called times: 2049934
Max global_stall_cycles_count: 3879024
Threshold Modified: 1 times, factor: -1
Sturdy critical IP cache stats: 
 Unused entries: 0
CIC Tag Read Accesses: 0
CIC Read Accesses: 0
CIC Tag Write Accesses: 0
CIC Write Accesses: 0
Wobbly critical IP cache stats: 
 Unused entries: 84
CIC Tag Read Accesses: 82031361
CIC Read Accesses: 0
CIC Tag Write Accesses: 10787
CIC Write Accesses: 0
ITLB TOTAL     ACCESS:    9297671  HIT:    9219257  MISS:      78414  HIT %:    99.1566  MISS %:   0.843372   MPKI: 1.56828
ITLB LOAD TRANSLATION ACCESS:    8635262  HIT:    8597984  MISS:      37278  HIT %:    99.5683  MISS %:   0.431695   MPKI: 0.74556
ITLB TRANSLATION FROM L1D PREFETCHER ACCESS:     662409  HIT:     621273  MISS:      41136  HIT %:    93.7899  MISS %:    6.21006   MPKI: 0.82272
ITLB PREFETCH  REQUESTED:          0  ISSUED:          0  USEFUL:      31702  USELESS:       9435
ITLB USEFUL LOAD PREFETCHES:      31702 PREFETCH ISSUED TO LOWER LEVEL:          0  ACCURACY: inf
ITLB TIMELY PREFETCHES:      31702 LATE PREFETCHES: 202 DROPPED PREFETCHES: 374
ITLB PREFETCHES SAME FILL-ORIGIN LEVEL: 0 DIFFERENT FILL-ORIGIN LEVEL: 0
ITLB AVERAGE MISS LATENCY: 105508 cycles
ITLB RQ	ACCESS:   11673821	FORWARD:          0	MERGED:    2362623	TO_CACHE:    9311198

DTLB TOTAL     ACCESS:    9889526  HIT:    9788979  MISS:     100547  HIT %:    98.9833  MISS %:     1.0167   MPKI: 2.01094
DTLB LOAD TRANSLATION ACCESS:    9889526  HIT:    9788979  MISS:     100547  HIT %:    98.9833  MISS %:     1.0167   MPKI: 2.01094
DTLB PREFETCH  REQUESTED:          0  ISSUED:          0  USEFUL:          0  USELESS:          0
DTLB USEFUL LOAD PREFETCHES:          0 PREFETCH ISSUED TO LOWER LEVEL:          0  ACCURACY: -nan
DTLB TIMELY PREFETCHES:          0 LATE PREFETCHES: 0 DROPPED PREFETCHES: 0
DTLB PREFETCHES SAME FILL-ORIGIN LEVEL: 0 DIFFERENT FILL-ORIGIN LEVEL: 0
DTLB AVERAGE MISS LATENCY: 14.0721 cycles
DTLB RQ	ACCESS:   12768708	FORWARD:          0	MERGED:    2862113	TO_CACHE:    9906595

STLB TOTAL     ACCESS:     268224  HIT:     263612  MISS:       4612  HIT %:    98.2805  MISS %:    1.71946   MPKI: 0.09224
STLB LOAD TRANSLATION ACCESS:     137623  HIT:     133207  MISS:       4416  HIT %:    96.7912  MISS %:    3.20877   MPKI: 0.08832
STLB TRANSLATION FROM L1D PREFETCHER ACCESS:     130601  HIT:     130405  MISS:        196  HIT %:    99.8499  MISS %:   0.150075   MPKI: 0.00392
STLB PREFETCH  REQUESTED:          0  ISSUED:          0  USEFUL:        119  USELESS:         47
STLB USEFUL LOAD PREFETCHES:        119 PREFETCH ISSUED TO LOWER LEVEL:          0  ACCURACY: inf
STLB TIMELY PREFETCHES:        119 LATE PREFETCHES: 0 DROPPED PREFETCHES: 374
STLB PREFETCHES SAME FILL-ORIGIN LEVEL: 0 DIFFERENT FILL-ORIGIN LEVEL: 0
STLB AVERAGE MISS LATENCY: 133.088 cycles
STLB RQ	ACCESS:     280095	FORWARD:          0	MERGED:      11497	TO_CACHE:     268598

STLB Hit, L1D data hit: 0
STLB Hit, L2C data hit: 0
STLB Hit, LLC data hit: 0
STLB Hit, LLC data miss: 0
STLB STLB hints to L2: 0
L1D TOTAL     ACCESS:   12251936  HIT:   11836584  MISS:     415352  HIT %:    96.6099  MISS %:    3.39009   MPKI: 8.30704
L1D LOAD      ACCESS:    6209039  HIT:    6100325  MISS:     108714  HIT %:    98.2491  MISS %:     1.7509   MPKI: 2.17428
L1D RFO       ACCESS:    5954829  HIT:    5715149  MISS:     239680  HIT %:     95.975  MISS %:    4.02497   MPKI: 4.7936
L1D PREFETCH  ACCESS:      88068  HIT:      21110  MISS:      66958  HIT %:    23.9701  MISS %:    76.0299   MPKI: 1.33916
L1D PREFETCH  REQUESTED:     201541  ISSUED:     201541  USEFUL:      60259  USELESS:       6729
L1D USEFUL LOAD PREFETCHES:      60259 PREFETCH ISSUED TO LOWER LEVEL:      78531  ACCURACY: 76.7328
L1D TIMELY PREFETCHES:      60259 LATE PREFETCHES: 11561 DROPPED PREFETCHES: 0
L1D PREFETCHES SAME FILL-ORIGIN LEVEL: 78531 DIFFERENT FILL-ORIGIN LEVEL: 0
L1D AVERAGE MISS LATENCY: 1.90752e+06 cycles
L1D RQ	ACCESS:    9777166	FORWARD:          0	MERGED:    3412132	TO_CACHE:    6235855
L1D WQ	ACCESS:    6907394	FORWARD:     129200	MERGED:     374541	TO_CACHE:    6532853
L1D PQ	ACCESS:     100781	FORWARD:          0	MERGED:          0	TO_CACHE:     100760

L1D UNIQUE REGIONS ACCESSED: 0
L1D REGIONS CONFLICTS: 0
L1D Cross Page Prefetch Requests: 0
L1D Same Page Prefetch Requests: 264047
L1D ROI Sum of L1D PQ occupancy: 1523029
L1D PREFETCHES PUSHED FROM L2C: 0
L1I TOTAL     ACCESS:   11585418  HIT:   10852938  MISS:     732480  HIT %:    93.6776  MISS %:    6.32243   MPKI: 14.6496
L1I LOAD      ACCESS:    9754137  HIT:    9575811  MISS:     178326  HIT %:    98.1718  MISS %:    1.82821   MPKI: 3.56652
L1I PREFETCH  ACCESS:    1831281  HIT:    1277127  MISS:     554154  HIT %:    69.7395  MISS %:    30.2605   MPKI: 11.0831
L1I PREFETCH  REQUESTED:    1998993  ISSUED:    1996645  USEFUL:     354974  USELESS:     199212
L1I USEFUL LOAD PREFETCHES:     354974 PREFETCH ISSUED TO LOWER LEVEL:     571882  ACCURACY: 62.0712
L1I TIMELY PREFETCHES:     354974 LATE PREFETCHES: 17728 DROPPED PREFETCHES: 649
L1I PREFETCHES SAME FILL-ORIGIN LEVEL: 571882 DIFFERENT FILL-ORIGIN LEVEL: 0
L1I AVERAGE MISS LATENCY: 956884 cycles
L1I RQ	ACCESS:   14258449	FORWARD:          0	MERGED:    4480290	TO_CACHE:    9778159
L1I PQ	ACCESS:    1996645	FORWARD:          0	MERGED:     100983	TO_CACHE:    1895662

BTB TOTAL     ACCESS:    7502677  HIT:    7071437  MISS:     431240  HIT %:    94.2522  MISS %:    5.74782   MPKI: 8.6248
BTB BRANCH_DIRECT_JUMP	ACCESS:     370859  HIT:     358934  MISS:      11925
BTB BRANCH_INDIRECT	ACCESS:      83252  HIT:      39140  MISS:      44112
BTB BRANCH_CONDITIONAL	ACCESS:    5399005  HIT:    5361920  MISS:      37085
BTB BRANCH_DIRECT_CALL	ACCESS:     722308  HIT:     695961  MISS:      26347
BTB BRANCH_INDIRECT_CALL	ACCESS:     101901  HIT:      81558  MISS:      20343
BTB BRANCH_RETURN	ACCESS:     825352  HIT:     533924  MISS:     291428
BTB BRANCH_OTHER ACCESS:          0  HIT:          0  MISS:          0

L2C TOTAL     ACCESS:    1414987  HIT:    1024321  MISS:     390666  HIT %:    72.3908  MISS %:    27.6092   MPKI: 7.81332
L2C LOAD      ACCESS:     257747  HIT:     200472  MISS:      57275  HIT %:    77.7786  MISS %:    22.2214   MPKI: 1.1455
L2C DATA LOAD MPKI: 0.7508
L2C INSTRUCTION LOAD MPKI: 0.3947
L2C RFO       ACCESS:     239661  HIT:      29096  MISS:     210565  HIT %:    12.1405  MISS %:    87.8595   MPKI: 4.2113
L2C PREFETCH  ACCESS:     650413  HIT:     536898  MISS:     113515  HIT %:    82.5472  MISS %:    17.4528   MPKI: 2.2703
L2C DATA PREFETCH MPKI: 1.42894
L2C INSTRUCTION PREFETCH MPKI: 0.84136
L2C WRITEBACK ACCESS:     262046  HIT:     254290  MISS:       7756  HIT %:    97.0402  MISS %:    2.95979   MPKI: 0.15512
L2C LOAD TRANSLATION ACCESS:       4519  HIT:       3084  MISS:       1435  HIT %:    68.2452  MISS %:    31.7548   MPKI: 0.0287
L2C TRANSLATION FROM L1D PREFETCHER ACCESS:        601  HIT:        481  MISS:        120  HIT %:    80.0333  MISS %:    19.9667   MPKI: 0.0024
L2C PREFETCH  REQUESTED:          0  ISSUED:          0  USEFUL:       6218  USELESS:     108648
L2C USEFUL LOAD PREFETCHES:       6218 PREFETCH ISSUED TO LOWER LEVEL:     113515  ACCURACY: 5.47769
L2C TIMELY PREFETCHES:       6218 LATE PREFETCHES: 0 DROPPED PREFETCHES: 0
L2C PREFETCHES SAME FILL-ORIGIN LEVEL: 0 DIFFERENT FILL-ORIGIN LEVEL: 0
L2C AVERAGE MISS LATENCY: 139.867 cycles
L2C RQ	ACCESS:     502539	FORWARD:          0	MERGED:          0	TO_CACHE:     502528
L2C WQ	ACCESS:     262046	FORWARD:         11	MERGED:          0	TO_CACHE:     262046
L2C PQ	ACCESS:     650413	FORWARD:          0	MERGED:          0	TO_CACHE:     650413

L2C Instructions Evicting Data 36783
L2C Translations Evicting Data 1148
L2C Data Evicting Data 281101
L2C Instructions Evicting Instructions 24611
L2C Translations Evicting Instructions 399
L2C Data Evicting Instructions 37454
L2C Instructions Evicting Translations 409
L2C Translations Evicting Translations 8
L2C Data Evicting Translations 997
L2C Dense regions hint from L2: 0
PSCL5 TOTAL     ACCESS:       4986  HIT:       4986  MISS:          0  HIT %:        100  MISS %:          0   MPKI: 0
PSCL5 LOAD TRANSLATION ACCESS:       4416  HIT:       4416  MISS:          0  HIT %:        100  MISS %:          0   MPKI: 0
PSCL5 TRANSLATION FROM L1D PREFETCHER ACCESS:        570  HIT:        570  MISS:          0  HIT %:        100  MISS %:          0   MPKI: 0
PSCL5 PREFETCH  REQUESTED:          0  ISSUED:          0  USEFUL:          0  USELESS:          0
PSCL5 USEFUL LOAD PREFETCHES:          0 PREFETCH ISSUED TO LOWER LEVEL:          0  ACCURACY: -nan
PSCL5 TIMELY PREFETCHES:          0 LATE PREFETCHES: 0 DROPPED PREFETCHES: 0
PSCL5 PREFETCHES SAME FILL-ORIGIN LEVEL: 0 DIFFERENT FILL-ORIGIN LEVEL: 0

PSCL4 TOTAL     ACCESS:       4986  HIT:       4986  MISS:          0  HIT %:        100  MISS %:          0   MPKI: 0
PSCL4 LOAD TRANSLATION ACCESS:       4416  HIT:       4416  MISS:          0  HIT %:        100  MISS %:          0   MPKI: 0
PSCL4 TRANSLATION FROM L1D PREFETCHER ACCESS:        570  HIT:        570  MISS:          0  HIT %:        100  MISS %:          0   MPKI: 0
PSCL4 PREFETCH  REQUESTED:          0  ISSUED:          0  USEFUL:          0  USELESS:          0
PSCL4 USEFUL LOAD PREFETCHES:          0 PREFETCH ISSUED TO LOWER LEVEL:          0  ACCURACY: -nan
PSCL4 TIMELY PREFETCHES:          0 LATE PREFETCHES: 0 DROPPED PREFETCHES: 0
PSCL4 PREFETCHES SAME FILL-ORIGIN LEVEL: 0 DIFFERENT FILL-ORIGIN LEVEL: 0

PSCL3 TOTAL     ACCESS:       4953  HIT:       4950  MISS:          3  HIT %:    99.9394  MISS %:  0.0605694   MPKI: 6e-05
PSCL3 LOAD TRANSLATION ACCESS:       4386  HIT:       4383  MISS:          3  HIT %:    99.9316  MISS %:  0.0683995   MPKI: 6e-05
PSCL3 TRANSLATION FROM L1D PREFETCHER ACCESS:        567  HIT:        567  MISS:          0  HIT %:        100  MISS %:          0   MPKI: 0
PSCL3 PREFETCH  REQUESTED:          0  ISSUED:          0  USEFUL:          0  USELESS:          0
PSCL3 USEFUL LOAD PREFETCHES:          0 PREFETCH ISSUED TO LOWER LEVEL:          0  ACCURACY: -nan
PSCL3 TIMELY PREFETCHES:          0 LATE PREFETCHES: 0 DROPPED PREFETCHES: 0
PSCL3 PREFETCHES SAME FILL-ORIGIN LEVEL: 0 DIFFERENT FILL-ORIGIN LEVEL: 0

PSCL2 TOTAL     ACCESS:       4961  HIT:       4842  MISS:        119  HIT %:    97.6013  MISS %:    2.39871   MPKI: 0.00238
PSCL2 LOAD TRANSLATION ACCESS:       4421  HIT:       4302  MISS:        119  HIT %:    97.3083  MISS %:     2.6917   MPKI: 0.00238
PSCL2 TRANSLATION FROM L1D PREFETCHER ACCESS:        540  HIT:        540  MISS:          0  HIT %:        100  MISS %:          0   MPKI: 0
PSCL2 PREFETCH  REQUESTED:          0  ISSUED:          0  USEFUL:          0  USELESS:          0
PSCL2 USEFUL LOAD PREFETCHES:          0 PREFETCH ISSUED TO LOWER LEVEL:          0  ACCURACY: -nan
PSCL2 TIMELY PREFETCHES:          0 LATE PREFETCHES: 0 DROPPED PREFETCHES: 0
PSCL2 PREFETCHES SAME FILL-ORIGIN LEVEL: 0 DIFFERENT FILL-ORIGIN LEVEL: 0

LLC TOTAL     ACCESS:     600856  HIT:     334450  MISS:     266406  HIT %:    55.6623  MISS %:    44.3377   MPKI: 5.32812
LLC LOAD      ACCESS:      57274  HIT:      40270  MISS:      17004  HIT %:    70.3111  MISS %:    29.6889   MPKI: 0.34008
LLC RFO       ACCESS:     210565  HIT:      35455  MISS:     175110  HIT %:     16.838  MISS %:     83.162   MPKI: 3.5022
LLC PREFETCH  ACCESS:     113515  HIT:      44639  MISS:      68876  HIT %:    39.3243  MISS %:    60.6757   MPKI: 1.37752
LLC WRITEBACK ACCESS:     217947  HIT:     213584  MISS:       4363  HIT %:    97.9981  MISS %:    2.00186   MPKI: 0.08726
LLC LOAD TRANSLATION ACCESS:       1435  HIT:        445  MISS:        990  HIT %:    31.0105  MISS %:    68.9895   MPKI: 0.0198
LLC TRANSLATION FROM L1D PREFETCHER ACCESS:        120  HIT:         57  MISS:         63  HIT %:       47.5  MISS %:       52.5   MPKI: 0.00126
LLC PREFETCH  REQUESTED:          0  ISSUED:          0  USEFUL:        941  USELESS:      66103
LLC USEFUL LOAD PREFETCHES:        941 PREFETCH ISSUED TO LOWER LEVEL:      68876  ACCURACY: 1.36622
LLC TIMELY PREFETCHES:        941 LATE PREFETCHES: 0 DROPPED PREFETCHES: 0
LLC PREFETCHES SAME FILL-ORIGIN LEVEL: 0 DIFFERENT FILL-ORIGIN LEVEL: 0
LLC AVERAGE MISS LATENCY: 161.725 cycles
LLC RQ	ACCESS:     269395	FORWARD:          0	MERGED:          0	TO_CACHE:     269394
LLC WQ	ACCESS:     217947	FORWARD:          1	MERGED:          0	TO_CACHE:     217947
LLC PQ	ACCESS:     113515	FORWARD:          0	MERGED:          0	TO_CACHE:     113515

LLC Dense regions hint to LLC: 0

RAW hits: 1279110
Loads Generated: 11056274
Loads sent to L1D: 9777166
Stores Generated: 6907390
Stores sent to L1D: 6907394
Major fault: 0 Minor fault: 5106
Allocated PAGES: 5106
I-Shadow cache 408 bytes
Touched + WorthPF tables 6144 bytes 
MMA filter 174 bytes 
FNL filter 272 bytes 
TOTAL PREFETCHER STORAGE SIZE: 25174 bytes
CPU 0 L1I next line prefetcher final stats

stream: 
stream:times selected: 442947
stream:pref_filled: 31225
stream:pref_useful: 10229
stream:pref_late: 1666
stream:misses: 2679
stream:misses_by_poll: 0

CS: 
CS:times selected: 102632
CS:pref_filled: 66862
CS:pref_useful: 63199
CS:pref_late: 10190
CS:misses: 25356
CS:misses_by_poll: 204

CPLX: 
CPLX:times selected: 339088
CPLX:pref_filled: 10739
CPLX:pref_useful: 2063
CPLX:pref_late: 64
CPLX:misses: 17350
CPLX:misses_by_poll: 8

NL_L1: 
NL:times selected: 5460
NL:pref_filled: 348
NL:pref_useful: 134
NL:pref_late: 4
NL:misses: 176
NL:misses_by_poll: 0

total selections: 890127
total_filled: 66958
total_useful: 60259
total_late: 12188
total_polluted: 212
total_misses_after_warmup: 38943
conflicts: 120247
Degree Incremented Times: 5287
Degree Decremented Times: 82560

L1 IP Table Write Accesses: 1393219
L1 IP Table Read Accesses: 1272972
L1 RST Write Accesses: 159483
L1 RST Read Accesses: 318966
L1 CSPT Write Accesses: 159483
L1 CSPT Read Accesses: 243144
L1 RR Filter Tag Write Accesses: 100781
L1 RR Filter Tag Read Accesses: 11666093
L1 IP Table Tag Write Accesses: 1530310
L1 IP Table Tag Read Accesses: 1530310
L1 RST Tag Write Accesses: 0
L1 RST Tag Read Accesses: 1790558
L1 RR Filter Write Accesses: 0
L1 RR Filter Read Accesses: 408781
test: 86200

DRAM Statistics
 CHANNEL 0
 RQ ROW_BUFFER_HIT:     104630  ROW_BUFFER_MISS:     157413
 DBUS_CONGESTED:        144
 WQ ROW_BUFFER_HIT:      36001  ROW_BUFFER_MISS:     138925  FULL:          0

 AVG_CONGESTED_CYCLE: 2
 All warmup complete: 2
Channel 0 Bank busy for read cycles: 0
Channel 0 Bank busy for write cycles: 0
Channel 0
Rank 0
0banks busy for read cycles: 51874886
0banks busy for write cycles: 33332
1banks busy for read cycles: 7814721
1banks busy for write cycles: 3990211
2banks busy for read cycles: 2920832
2banks busy for write cycles: 1282571
3banks busy for read cycles: 846391
3banks busy for write cycles: 348822
4banks busy for read cycles: 431758
4banks busy for write cycles: 268928
5banks busy for read cycles: 288881
5banks busy for write cycles: 222829
6banks busy for read cycles: 339653
6banks busy for write cycles: 237861
7banks busy for read cycles: 384999
7banks busy for write cycles: 367570
8banks busy for read cycles: 644864
8banks busy for write cycles: 1808380

CPU 0 Branch Prediction Accuracy: 98.6631% MPKI: 2.66884 Average ROB Occupancy at Mispredict: 41.7404
Branch types
NOT_BRANCH: 40018632 80.0373%
BRANCH_DIRECT_JUMP: 370859 0.741718%
BRANCH_INDIRECT: 83252 0.166504%
BRANCH_CONDITIONAL: 7877415 15.7548%
BRANCH_DIRECT_CALL: 722308 1.44462%
BRANCH_INDIRECT_CALL: 101901 0.203802%
BRANCH_RETURN: 825352 1.6507%
BRANCH_OTHER: 0 0%

DRAM PAGES: 1048576
Allocated PAGES: 5106
