Initialize SIGNATURE TABLE
ST_SET: 1
ST_WAY: 256
ST_TAG_BIT: 16
ST_TAG_MASK: ffff

Initialize PATTERN TABLE
PT_SET: 512
PT_WAY: 4
SIG_DELTA_BIT: 7
C_SIG_BIT: 4
C_DELTA_BIT: 4

Initialize PREFETCH FILTER
FILTER_SET: 1024

*** ChampSim Multicore Out-of-Order Simulator ***

Warmup Instructions: 50000000
Simulation Instructions: 50000000
Number of CPUs: 1
LLC sets: 2048
LLC ways: 16
Off-chip DRAM Size: 4096 MB Channels: 1 Width: 64-bit Data Rate: 6400 MT/s
CPU 0 runs ../IPC-traces//client_002.champsimtrace.xz
.xz
BTB has LRU replacement policy
ITLB has LRU replacement policy
DTLB has LRU replacement policy
STLB has LRU replacement policy
CPU 0 L1I next line prefetcher
L1I has LRU replacement policy
L1D has LRU replacement policy
Initialize SRRIP state for L2C
Initialize DRRIP state for LLC
Heartbeat CPU 0 instructions: 10000000 cycles: 2817302 heartbeat IPC: 3.5495 cumulative IPC: 3.5495 (Simulation time: 0 hr 4 min 57 sec) 
Heartbeat CPU 0 instructions: 20000001 cycles: 5653123 heartbeat IPC: 3.52632 cumulative IPC: 3.53787 (Simulation time: 0 hr 8 min 0 sec) 
Heartbeat CPU 0 instructions: 30000002 cycles: 8484767 heartbeat IPC: 3.53152 cumulative IPC: 3.53575 (Simulation time: 0 hr 11 min 20 sec) 
Heartbeat CPU 0 instructions: 40000000 cycles: 11321093 heartbeat IPC: 3.52569 cumulative IPC: 3.53323 (Simulation time: 0 hr 14 min 17 sec) 
Heartbeat CPU 0 instructions: 50000002 cycles: 14143479 heartbeat IPC: 3.5431 cumulative IPC: 3.5352 (Simulation time: 0 hr 17 min 15 sec) 

Warmup complete CPU 0 instructions: 50000002 cycles: 14143479 (Simulation time: 0 hr 17 min 15 sec) 

Heartbeat CPU 0 instructions: 60000001 cycles: 27084673 heartbeat IPC: 0.772726 cumulative IPC: 0.772726 (Simulation time: 0 hr 20 min 42 sec) 
Heartbeat CPU 0 instructions: 70000000 cycles: 40129141 heartbeat IPC: 0.766608 cumulative IPC: 0.769655 (Simulation time: 0 hr 23 min 51 sec) 
Heartbeat CPU 0 instructions: 80000000 cycles: 52895869 heartbeat IPC: 0.783286 cumulative IPC: 0.774146 (Simulation time: 0 hr 27 min 5 sec) 
Heartbeat CPU 0 instructions: 90000001 cycles: 66512140 heartbeat IPC: 0.734416 cumulative IPC: 0.763816 (Simulation time: 0 hr 30 min 15 sec) 
Heartbeat CPU 0 instructions: 100000003 cycles: 79273929 heartbeat IPC: 0.783589 cumulative IPC: 0.76769 (Simulation time: 0 hr 33 min 15 sec) 
Finished CPU 0 instructions: 50000001 cycles: 65130450 cumulative IPC: 0.76769 (Simulation time: 0 hr 33 min 15 sec) 

ChampSim completed all CPUs

Region of Interest Statistics

CPU 0 cumulative IPC: 0.76769 instructions: 50000001 cycles: 65130450

CPU 0 Average Load ROB stall cycles: 1.7838e+07
CPU 0 Fraction of times ROB stalled by Loads: 38.2427
CPU 0 Percentage of Load stall cycles in Total stall cycles: 2.69209e+08
Issued all: 27095837
Issued LT all: 21437673
rob_not_full_when_issued_lt_all: 20953440
Issued LT one: 16081519
rob_not_full_when_issued_lt_one: 15660282
 Total stall cycles: 52260648
 Total load stall cycles: 140690603849029
Unique Load IPs: 28376
CPU 0 NUM of IPS identified critical: 7
CPU 0 Num of Load IPs stalling ROB: 0
Threshold modification factor: 0
Trouble in retire width: -nan
MaC = Marked as critical.
lt_50_percent_before_Mac: 0
gt_90_percent_before_Mac: 0
gt_75_percent_before_Mac: 4
gt_50_percent_before_Mac: 2
stall_proportion_bin_same_before_after: 0
stall_proportion_bin_lower_before_after: 0
stall_proportion_bin_upper_before_after: 0
average_stall_proportion_before: 0.034063
average_stall_proportion_after: 0.0358252
Critical_IP_Detector_Accuracy_70: 0
Critical_IP_Detector_Accuracy_80: 0
Critical_IP_Detector_Accuracy_90: 0
Critical_IP_Detector_Coverage_70: 0
Critical_IP_Detector_Coverage_80: 0
Critical_IP_Detector_Coverage_90: 0
stat_90_percent_critical_ip_stalls_freq: 104604
stat_90_percent_non_critical_ip_stalls_freq: 18446744073709447012
AVERAGE_ROB_Occupancy_90_Percent_Critical_IP_Stalls: 64.0393
AVERAGE_ROB_Occupancy_90_Percent_Non_Critical_IP_Stalls: 9.44282e-12
Critical_IP_ROB_Stalls_Bucket_0: 359
Non-critical_IP_ROB_Stalls_Bucket_0: 1631575
Critical_IP_ROB_Stalls_Bucket_1: 3546
Non-critical_IP_ROB_Stalls_Bucket_1: 916509
Critical_IP_ROB_Stalls_Bucket_2: 162
Non-critical_IP_ROB_Stalls_Bucket_2: 320653
Critical_IP_ROB_Stalls_Bucket_3: 35
Non-critical_IP_ROB_Stalls_Bucket_3: 84198
Critical_IP_ROB_Stalls_Bucket_4: 14
Non-critical_IP_ROB_Stalls_Bucket_4: 24600
Critical_IP_ROB_Stalls_Bucket_5: 0
Non-critical_IP_ROB_Stalls_Bucket_5: 10888
Critical_IP_ROB_Stalls_Bucket_6: 0
Non-critical_IP_ROB_Stalls_Bucket_6: 23707
0 => IPs accounting for >50 percent of stalls, 1 => 55, 2 => 60, 3 => 65 and so on till 90.
percent50: inf num IPs:  1
percent55: inf num IPs: 1
percent60: inf num IPs: 1
percent65: inf num IPs: 1
percent70: inf num IPs: 1
percent75: inf num IPs: 1
percent80: inf num IPs: 1
percent85: inf num IPs: 1
percent90: inf num IPs: 1
Critical_ROB_Stalls_Percent_0_Bucket_0: 50880
Non-critical_ROB_Stalls_Percent_0_Bucket_0: 1581054
Critical_ROB_Stalls_Percent_0_Bucket_1: 37877
Non-critical_ROB_Stalls_Percent_0_Bucket_1: 882178
Critical_ROB_Stalls_Percent_0_Bucket_2: 11122
Non-critical_ROB_Stalls_Percent_0_Bucket_2: 309693
Critical_ROB_Stalls_Percent_0_Bucket_3: 3308
Non-critical_ROB_Stalls_Percent_0_Bucket_3: 80925
Critical_ROB_Stalls_Percent_0_Bucket_4: 1228
Non-critical_ROB_Stalls_Percent_0_Bucket_4: 23386
Critical_ROB_Stalls_Percent_0_Bucket_5: 120
Non-critical_ROB_Stalls_Percent_0_Bucket_5: 10768
Critical_ROB_Stalls_Percent_0_Bucket_6: 69
Non-critical_ROB_Stalls_Percent_0_Bucket_6: 23638
Critical_ROB_Stalls_Percent_1_Bucket_0: 50880
Non-critical_ROB_Stalls_Percent_1_Bucket_0: 1581054
Critical_ROB_Stalls_Percent_1_Bucket_1: 37877
Non-critical_ROB_Stalls_Percent_1_Bucket_1: 882178
Critical_ROB_Stalls_Percent_1_Bucket_2: 11122
Non-critical_ROB_Stalls_Percent_1_Bucket_2: 309693
Critical_ROB_Stalls_Percent_1_Bucket_3: 3308
Non-critical_ROB_Stalls_Percent_1_Bucket_3: 80925
Critical_ROB_Stalls_Percent_1_Bucket_4: 1228
Non-critical_ROB_Stalls_Percent_1_Bucket_4: 23386
Critical_ROB_Stalls_Percent_1_Bucket_5: 120
Non-critical_ROB_Stalls_Percent_1_Bucket_5: 10768
Critical_ROB_Stalls_Percent_1_Bucket_6: 69
Non-critical_ROB_Stalls_Percent_1_Bucket_6: 23638
Critical_ROB_Stalls_Percent_2_Bucket_0: 50880
Non-critical_ROB_Stalls_Percent_2_Bucket_0: 1581054
Critical_ROB_Stalls_Percent_2_Bucket_1: 37877
Non-critical_ROB_Stalls_Percent_2_Bucket_1: 882178
Critical_ROB_Stalls_Percent_2_Bucket_2: 11122
Non-critical_ROB_Stalls_Percent_2_Bucket_2: 309693
Critical_ROB_Stalls_Percent_2_Bucket_3: 3308
Non-critical_ROB_Stalls_Percent_2_Bucket_3: 80925
Critical_ROB_Stalls_Percent_2_Bucket_4: 1228
Non-critical_ROB_Stalls_Percent_2_Bucket_4: 23386
Critical_ROB_Stalls_Percent_2_Bucket_5: 120
Non-critical_ROB_Stalls_Percent_2_Bucket_5: 10768
Critical_ROB_Stalls_Percent_2_Bucket_6: 69
Non-critical_ROB_Stalls_Percent_2_Bucket_6: 23638
Critical_ROB_Stalls_Percent_3_Bucket_0: 50880
Non-critical_ROB_Stalls_Percent_3_Bucket_0: 1581054
Critical_ROB_Stalls_Percent_3_Bucket_1: 37877
Non-critical_ROB_Stalls_Percent_3_Bucket_1: 882178
Critical_ROB_Stalls_Percent_3_Bucket_2: 11122
Non-critical_ROB_Stalls_Percent_3_Bucket_2: 309693
Critical_ROB_Stalls_Percent_3_Bucket_3: 3308
Non-critical_ROB_Stalls_Percent_3_Bucket_3: 80925
Critical_ROB_Stalls_Percent_3_Bucket_4: 1228
Non-critical_ROB_Stalls_Percent_3_Bucket_4: 23386
Critical_ROB_Stalls_Percent_3_Bucket_5: 120
Non-critical_ROB_Stalls_Percent_3_Bucket_5: 10768
Critical_ROB_Stalls_Percent_3_Bucket_6: 69
Non-critical_ROB_Stalls_Percent_3_Bucket_6: 23638
Critical_ROB_Stalls_Percent_4_Bucket_0: 50880
Non-critical_ROB_Stalls_Percent_4_Bucket_0: 1581054
Critical_ROB_Stalls_Percent_4_Bucket_1: 37877
Non-critical_ROB_Stalls_Percent_4_Bucket_1: 882178
Critical_ROB_Stalls_Percent_4_Bucket_2: 11122
Non-critical_ROB_Stalls_Percent_4_Bucket_2: 309693
Critical_ROB_Stalls_Percent_4_Bucket_3: 3308
Non-critical_ROB_Stalls_Percent_4_Bucket_3: 80925
Critical_ROB_Stalls_Percent_4_Bucket_4: 1228
Non-critical_ROB_Stalls_Percent_4_Bucket_4: 23386
Critical_ROB_Stalls_Percent_4_Bucket_5: 120
Non-critical_ROB_Stalls_Percent_4_Bucket_5: 10768
Critical_ROB_Stalls_Percent_4_Bucket_6: 69
Non-critical_ROB_Stalls_Percent_4_Bucket_6: 23638
Critical_ROB_Stalls_Percent_5_Bucket_0: 50880
Non-critical_ROB_Stalls_Percent_5_Bucket_0: 1581054
Critical_ROB_Stalls_Percent_5_Bucket_1: 37877
Non-critical_ROB_Stalls_Percent_5_Bucket_1: 882178
Critical_ROB_Stalls_Percent_5_Bucket_2: 11122
Non-critical_ROB_Stalls_Percent_5_Bucket_2: 309693
Critical_ROB_Stalls_Percent_5_Bucket_3: 3308
Non-critical_ROB_Stalls_Percent_5_Bucket_3: 80925
Critical_ROB_Stalls_Percent_5_Bucket_4: 1228
Non-critical_ROB_Stalls_Percent_5_Bucket_4: 23386
Critical_ROB_Stalls_Percent_5_Bucket_5: 120
Non-critical_ROB_Stalls_Percent_5_Bucket_5: 10768
Critical_ROB_Stalls_Percent_5_Bucket_6: 69
Non-critical_ROB_Stalls_Percent_5_Bucket_6: 23638
Critical_ROB_Stalls_Percent_6_Bucket_0: 50880
Non-critical_ROB_Stalls_Percent_6_Bucket_0: 1581054
Critical_ROB_Stalls_Percent_6_Bucket_1: 37877
Non-critical_ROB_Stalls_Percent_6_Bucket_1: 882178
Critical_ROB_Stalls_Percent_6_Bucket_2: 11122
Non-critical_ROB_Stalls_Percent_6_Bucket_2: 309693
Critical_ROB_Stalls_Percent_6_Bucket_3: 3308
Non-critical_ROB_Stalls_Percent_6_Bucket_3: 80925
Critical_ROB_Stalls_Percent_6_Bucket_4: 1228
Non-critical_ROB_Stalls_Percent_6_Bucket_4: 23386
Critical_ROB_Stalls_Percent_6_Bucket_5: 120
Non-critical_ROB_Stalls_Percent_6_Bucket_5: 10768
Critical_ROB_Stalls_Percent_6_Bucket_6: 69
Non-critical_ROB_Stalls_Percent_6_Bucket_6: 23638
Critical_ROB_Stalls_Percent_7_Bucket_0: 50880
Non-critical_ROB_Stalls_Percent_7_Bucket_0: 1581054
Critical_ROB_Stalls_Percent_7_Bucket_1: 37877
Non-critical_ROB_Stalls_Percent_7_Bucket_1: 882178
Critical_ROB_Stalls_Percent_7_Bucket_2: 11122
Non-critical_ROB_Stalls_Percent_7_Bucket_2: 309693
Critical_ROB_Stalls_Percent_7_Bucket_3: 3308
Non-critical_ROB_Stalls_Percent_7_Bucket_3: 80925
Critical_ROB_Stalls_Percent_7_Bucket_4: 1228
Non-critical_ROB_Stalls_Percent_7_Bucket_4: 23386
Critical_ROB_Stalls_Percent_7_Bucket_5: 120
Non-critical_ROB_Stalls_Percent_7_Bucket_5: 10768
Critical_ROB_Stalls_Percent_7_Bucket_6: 69
Non-critical_ROB_Stalls_Percent_7_Bucket_6: 23638
Critical_ROB_Stalls_Percent_8_Bucket_0: 50880
Non-critical_ROB_Stalls_Percent_8_Bucket_0: 1581054
Critical_ROB_Stalls_Percent_8_Bucket_1: 37877
Non-critical_ROB_Stalls_Percent_8_Bucket_1: 882178
Critical_ROB_Stalls_Percent_8_Bucket_2: 11122
Non-critical_ROB_Stalls_Percent_8_Bucket_2: 309693
Critical_ROB_Stalls_Percent_8_Bucket_3: 3308
Non-critical_ROB_Stalls_Percent_8_Bucket_3: 80925
Critical_ROB_Stalls_Percent_8_Bucket_4: 1228
Non-critical_ROB_Stalls_Percent_8_Bucket_4: 23386
Critical_ROB_Stalls_Percent_8_Bucket_5: 120
Non-critical_ROB_Stalls_Percent_8_Bucket_5: 10768
Critical_ROB_Stalls_Percent_8_Bucket_6: 69
Non-critical_ROB_Stalls_Percent_8_Bucket_6: 23638
Average ROB occupancy Load Stall Begin: 50.4557
Average ROB occupancy Load Stall End: 59.9712
Min ROB occupancy Load Stall Begin: 1
Max ROB occupancy Load Stall Begin: 352
Min ROB occupancy Load Stall End: 1
Max ROB occupancy Load Stall End: 352
Average ROB occupancy Critical Load Stall Begin: 52.9216
Average ROB occupancy Critical Load Stall End: 66.3496
Min ROB occupancy Critical Load Stall Begin: 3
Max ROB occupancy Critical Load Stall Begin: 207
Min ROB occupancy Critical Load Stall End: 6
Max ROB occupancy Critical Load Stall End: 219
 ROB Load Stall Begin Bucket Count 0: 1941032
 ROB Load Stall End Bucket Count 0: 1631934
 ROB Critical Load Stall Begin Bucket Count 0: 425
 ROB Critical Load Stall End Bucket Count 0: 100
 ROB Load Stall Begin Bucket Count 1: 724862
 ROB Load Stall End Bucket Count 1: 920055
 ROB Critical Load Stall Begin Bucket Count 1: 311
 ROB Critical Load Stall End Bucket Count 1: 622
 ROB Load Stall Begin Bucket Count 2: 239826
 ROB Load Stall End Bucket Count 2: 320815
 ROB Critical Load Stall Begin Bucket Count 2: 25
 ROB Critical Load Stall End Bucket Count 2: 41
 ROB Load Stall Begin Bucket Count 3: 61337
 ROB Load Stall End Bucket Count 3: 84233
 ROB Critical Load Stall Begin Bucket Count 3: 15
 ROB Critical Load Stall End Bucket Count 3: 13
 ROB Load Stall Begin Bucket Count 4: 18358
 ROB Load Stall End Bucket Count 4: 24614
 ROB Critical Load Stall Begin Bucket Count 4: 2
 ROB Critical Load Stall End Bucket Count 4: 4
 ROB Load Stall Begin Bucket Count 5: 9436
 ROB Load Stall End Bucket Count 5: 10888
 ROB Critical Load Stall Begin Bucket Count 5: 0
 ROB Critical Load Stall End Bucket Count 5: 0
 ROB Load Stall Begin Bucket Count 6: 21395
 ROB Load Stall End Bucket Count 6: 23707
 ROB Critical Load Stall Begin Bucket Count 6: 0
 ROB Critical Load Stall End Bucket Count 6: 0
PIST Tag Read Accesses: 0
PIST Read Accesses: 0
PIST Tag Write Accesses: 0
PIST Write Accesses: 0
Criticality detector called times: 0
Max global_stall_cycles_count: 0
Threshold Modified: 0 times, factor: 0
Sturdy critical IP cache stats: 
 Unused entries: 0
CIC Tag Read Accesses: 0
CIC Read Accesses: 0
CIC Tag Write Accesses: 0
CIC Write Accesses: 0
Wobbly critical IP cache stats: 
 Unused entries: 2
CIC Tag Read Accesses: 144966505
CIC Read Accesses: 0
CIC Tag Write Accesses: 24986
CIC Write Accesses: 0
ITLB TOTAL     ACCESS:    9208541  HIT:    9086368  MISS:     122173  HIT %:    98.6733  MISS %:    1.32674   MPKI: 2.44346
ITLB LOAD TRANSLATION ACCESS:    8313879  HIT:    8269869  MISS:      44010  HIT %:    99.4706  MISS %:   0.529356   MPKI: 0.8802
ITLB TRANSLATION FROM L1D PREFETCHER ACCESS:     894662  HIT:     816499  MISS:      78163  HIT %:    91.2634  MISS %:     8.7366   MPKI: 1.56326
ITLB PREFETCH  REQUESTED:          0  ISSUED:          0  USEFUL:      66418  USELESS:      11747
ITLB USEFUL LOAD PREFETCHES:      66418 PREFETCH ISSUED TO LOWER LEVEL:          0  ACCURACY: inf
ITLB TIMELY PREFETCHES:      66418 LATE PREFETCHES: 202 DROPPED PREFETCHES: 255
ITLB PREFETCHES SAME FILL-ORIGIN LEVEL: 0 DIFFERENT FILL-ORIGIN LEVEL: 0
ITLB AVERAGE MISS LATENCY: 75886 cycles
ITLB RQ	ACCESS:   12621650	FORWARD:          0	MERGED:    3394383	TO_CACHE:    9227267

DTLB TOTAL     ACCESS:   10048885  HIT:    9890509  MISS:     158376  HIT %:    98.4239  MISS %:    1.57606   MPKI: 3.16752
DTLB LOAD TRANSLATION ACCESS:   10048885  HIT:    9890509  MISS:     158376  HIT %:    98.4239  MISS %:    1.57606   MPKI: 3.16752
DTLB PREFETCH  REQUESTED:          0  ISSUED:          0  USEFUL:          0  USELESS:          0
DTLB USEFUL LOAD PREFETCHES:          0 PREFETCH ISSUED TO LOWER LEVEL:          0  ACCURACY: -nan
DTLB TIMELY PREFETCHES:          0 LATE PREFETCHES: 0 DROPPED PREFETCHES: 0
DTLB PREFETCHES SAME FILL-ORIGIN LEVEL: 0 DIFFERENT FILL-ORIGIN LEVEL: 0
DTLB AVERAGE MISS LATENCY: 11.0931 cycles
DTLB RQ	ACCESS:   13610558	FORWARD:          0	MERGED:    3544395	TO_CACHE:   10066163

STLB TOTAL     ACCESS:     280549  HIT:     272318  MISS:       8231  HIT %:    97.0661  MISS %:    2.93389   MPKI: 0.16462
STLB LOAD TRANSLATION ACCESS:     202184  HIT:     194789  MISS:       7395  HIT %:    96.3424  MISS %:    3.65756   MPKI: 0.1479
STLB TRANSLATION FROM L1D PREFETCHER ACCESS:      78365  HIT:      77529  MISS:        836  HIT %:    98.9332  MISS %:     1.0668   MPKI: 0.01672
STLB PREFETCH  REQUESTED:          0  ISSUED:          0  USEFUL:        254  USELESS:        583
STLB USEFUL LOAD PREFETCHES:        254 PREFETCH ISSUED TO LOWER LEVEL:          0  ACCURACY: inf
STLB TIMELY PREFETCHES:        254 LATE PREFETCHES: 0 DROPPED PREFETCHES: 255
STLB PREFETCHES SAME FILL-ORIGIN LEVEL: 0 DIFFERENT FILL-ORIGIN LEVEL: 0
STLB AVERAGE MISS LATENCY: 47.4038 cycles
STLB RQ	ACCESS:     280804	FORWARD:          0	MERGED:          0	TO_CACHE:     280804

STLB Hit, L1D data hit: 0
STLB Hit, L2C data hit: 0
STLB Hit, LLC data hit: 0
STLB Hit, LLC data miss: 0
STLB STLB hints to L2: 0
L1D TOTAL     ACCESS:   13385745  HIT:   13144944  MISS:     240801  HIT %:    98.2011  MISS %:    1.79894   MPKI: 4.81602
L1D LOAD      ACCESS:    7005299  HIT:    6861837  MISS:     143462  HIT %:    97.9521  MISS %:    2.04791   MPKI: 2.86924
L1D RFO       ACCESS:    6380446  HIT:    6283107  MISS:      97339  HIT %:    98.4744  MISS %:    1.52558   MPKI: 1.94678
L1D PREFETCH  REQUESTED:          0  ISSUED:          0  USEFUL:          0  USELESS:          0
L1D USEFUL LOAD PREFETCHES:          0 PREFETCH ISSUED TO LOWER LEVEL:          0  ACCURACY: -nan
L1D TIMELY PREFETCHES:          0 LATE PREFETCHES: 0 DROPPED PREFETCHES: 0
L1D PREFETCHES SAME FILL-ORIGIN LEVEL: 0 DIFFERENT FILL-ORIGIN LEVEL: 0
L1D AVERAGE MISS LATENCY: 56.5266 cycles
L1D RQ	ACCESS:   11301405	FORWARD:          0	MERGED:    4105943	TO_CACHE:    7020330
L1D WQ	ACCESS:    6777772	FORWARD:     175132	MERGED:     187544	TO_CACHE:    6590228

L1D UNIQUE REGIONS ACCESSED: 0
L1D REGIONS CONFLICTS: 0
L1D Cross Page Prefetch Requests: 0
L1D Same Page Prefetch Requests: 0
L1D ROI Sum of L1D PQ occupancy: 0
L1D PREFETCHES PUSHED FROM L2C: 0
L1I TOTAL     ACCESS:   12534314  HIT:   11587682  MISS:     946632  HIT %:    92.4477  MISS %:    7.55232   MPKI: 18.9326
L1I LOAD      ACCESS:    9990503  HIT:    9814773  MISS:     175730  HIT %:     98.241  MISS %:    1.75897   MPKI: 3.5146
L1I PREFETCH  ACCESS:    2543811  HIT:    1772909  MISS:     770902  HIT %:     69.695  MISS %:     30.305   MPKI: 15.418
L1I PREFETCH  REQUESTED:    2726695  ISSUED:    2722649  USEFUL:     519712  USELESS:     251196
L1I USEFUL LOAD PREFETCHES:     519712 PREFETCH ISSUED TO LOWER LEVEL:     786860  ACCURACY: 66.0489
L1I TIMELY PREFETCHES:     519712 LATE PREFETCHES: 15958 DROPPED PREFETCHES: 512
L1I PREFETCHES SAME FILL-ORIGIN LEVEL: 786860 DIFFERENT FILL-ORIGIN LEVEL: 0
L1I AVERAGE MISS LATENCY: 784791 cycles
L1I RQ	ACCESS:   15031545	FORWARD:          0	MERGED:    5017562	TO_CACHE:   10013983
L1I PQ	ACCESS:    2722649	FORWARD:          0	MERGED:     114982	TO_CACHE:    2607667

BTB TOTAL     ACCESS:    6850856  HIT:    6216517  MISS:     634339  HIT %:    90.7407  MISS %:    9.25927   MPKI: 12.6868
BTB BRANCH_DIRECT_JUMP	ACCESS:     517397  HIT:     498758  MISS:      18639
BTB BRANCH_INDIRECT	ACCESS:     112347  HIT:      56826  MISS:      55521
BTB BRANCH_CONDITIONAL	ACCESS:    4051503  HIT:    3997511  MISS:      53992
BTB BRANCH_DIRECT_CALL	ACCESS:     960973  HIT:     922167  MISS:      38806
BTB BRANCH_INDIRECT_CALL	ACCESS:     123707  HIT:      94699  MISS:      29008
BTB BRANCH_RETURN	ACCESS:    1084929  HIT:     646556  MISS:     438373
BTB BRANCH_OTHER ACCESS:          0  HIT:          0  MISS:          0

L2C TOTAL     ACCESS:    1556274  HIT:    1349367  MISS:     206907  HIT %:     86.705  MISS %:     13.295   MPKI: 4.13814
L2C LOAD      ACCESS:     303232  HIT:     222601  MISS:      80631  HIT %:    73.4095  MISS %:    26.5905   MPKI: 1.61262
L2C DATA LOAD MPKI: 1.01466
L2C INSTRUCTION LOAD MPKI: 0.59796
L2C RFO       ACCESS:      97338  HIT:      32421  MISS:      64917  HIT %:    33.3076  MISS %:    66.6924   MPKI: 1.29834
L2C PREFETCH  ACCESS:    1028610  HIT:     974836  MISS:      53774  HIT %:    94.7722  MISS %:    5.22783   MPKI: 1.07548
L2C DATA PREFETCH MPKI: 0.00412
L2C INSTRUCTION PREFETCH MPKI: 1.07136
L2C WRITEBACK ACCESS:     118331  HIT:     112542  MISS:       5789  HIT %:    95.1078  MISS %:    4.89221   MPKI: 0.11578
L2C LOAD TRANSLATION ACCESS:       7664  HIT:       5962  MISS:       1702  HIT %:    77.7923  MISS %:    22.2077   MPKI: 0.03404
L2C TRANSLATION FROM L1D PREFETCHER ACCESS:       1099  HIT:       1005  MISS:         94  HIT %:    91.4468  MISS %:    8.55323   MPKI: 0.00188
L2C PREFETCH  REQUESTED:     767380  ISSUED:     767379  USEFUL:       5609  USELESS:      48003
L2C USEFUL LOAD PREFETCHES:       5609 PREFETCH ISSUED TO LOWER LEVEL:     183353  ACCURACY: 3.05913
L2C TIMELY PREFETCHES:       5609 LATE PREFETCHES: 0 DROPPED PREFETCHES: 0
L2C PREFETCHES SAME FILL-ORIGIN LEVEL: 207 DIFFERENT FILL-ORIGIN LEVEL: 129579
L2C AVERAGE MISS LATENCY: 64.0999 cycles
L2C RQ	ACCESS:     409337	FORWARD:          0	MERGED:          0	TO_CACHE:     409334
L2C WQ	ACCESS:     118331	FORWARD:          3	MERGED:          0	TO_CACHE:     118331
L2C PQ	ACCESS:    1554239	FORWARD:          0	MERGED:     395626	TO_CACHE:    1158613

L2C Instructions Evicting Data 50192
L2C Translations Evicting Data 1061
L2C Data Evicting Data 67562
L2C Instructions Evicting Instructions 32614
L2C Translations Evicting Instructions 697
L2C Data Evicting Instructions 47241
L2C Instructions Evicting Translations 660
L2C Translations Evicting Translations 38
L2C Data Evicting Translations 1053
L2C Dense regions hint from L2: 0
PSCL5 TOTAL     ACCESS:       8486  HIT:       8486  MISS:          0  HIT %:        100  MISS %:          0   MPKI: 0
PSCL5 LOAD TRANSLATION ACCESS:       7395  HIT:       7395  MISS:          0  HIT %:        100  MISS %:          0   MPKI: 0
PSCL5 TRANSLATION FROM L1D PREFETCHER ACCESS:       1091  HIT:       1091  MISS:          0  HIT %:        100  MISS %:          0   MPKI: 0
PSCL5 PREFETCH  REQUESTED:          0  ISSUED:          0  USEFUL:          0  USELESS:          0
PSCL5 USEFUL LOAD PREFETCHES:          0 PREFETCH ISSUED TO LOWER LEVEL:          0  ACCURACY: -nan
PSCL5 TIMELY PREFETCHES:          0 LATE PREFETCHES: 0 DROPPED PREFETCHES: 0
PSCL5 PREFETCHES SAME FILL-ORIGIN LEVEL: 0 DIFFERENT FILL-ORIGIN LEVEL: 0

PSCL4 TOTAL     ACCESS:       8486  HIT:       8486  MISS:          0  HIT %:        100  MISS %:          0   MPKI: 0
PSCL4 LOAD TRANSLATION ACCESS:       7395  HIT:       7395  MISS:          0  HIT %:        100  MISS %:          0   MPKI: 0
PSCL4 TRANSLATION FROM L1D PREFETCHER ACCESS:       1091  HIT:       1091  MISS:          0  HIT %:        100  MISS %:          0   MPKI: 0
PSCL4 PREFETCH  REQUESTED:          0  ISSUED:          0  USEFUL:          0  USELESS:          0
PSCL4 USEFUL LOAD PREFETCHES:          0 PREFETCH ISSUED TO LOWER LEVEL:          0  ACCURACY: -nan
PSCL4 TIMELY PREFETCHES:          0 LATE PREFETCHES: 0 DROPPED PREFETCHES: 0
PSCL4 PREFETCHES SAME FILL-ORIGIN LEVEL: 0 DIFFERENT FILL-ORIGIN LEVEL: 0

PSCL3 TOTAL     ACCESS:       8478  HIT:       8469  MISS:          9  HIT %:    99.8938  MISS %:   0.106157   MPKI: 0.00018
PSCL3 LOAD TRANSLATION ACCESS:       7388  HIT:       7379  MISS:          9  HIT %:    99.8782  MISS %:   0.121819   MPKI: 0.00018
PSCL3 TRANSLATION FROM L1D PREFETCHER ACCESS:       1090  HIT:       1090  MISS:          0  HIT %:        100  MISS %:          0   MPKI: 0
PSCL3 PREFETCH  REQUESTED:          0  ISSUED:          0  USEFUL:          0  USELESS:          0
PSCL3 USEFUL LOAD PREFETCHES:          0 PREFETCH ISSUED TO LOWER LEVEL:          0  ACCURACY: -nan
PSCL3 TIMELY PREFETCHES:          0 LATE PREFETCHES: 0 DROPPED PREFETCHES: 0
PSCL3 PREFETCHES SAME FILL-ORIGIN LEVEL: 0 DIFFERENT FILL-ORIGIN LEVEL: 0

PSCL2 TOTAL     ACCESS:       8486  HIT:       8215  MISS:        271  HIT %:    96.8065  MISS %:     3.1935   MPKI: 0.00542
PSCL2 LOAD TRANSLATION ACCESS:       7403  HIT:       7132  MISS:        271  HIT %:    96.3393  MISS %:    3.66068   MPKI: 0.00542
PSCL2 TRANSLATION FROM L1D PREFETCHER ACCESS:       1083  HIT:       1083  MISS:          0  HIT %:        100  MISS %:          0   MPKI: 0
PSCL2 PREFETCH  REQUESTED:          0  ISSUED:          0  USEFUL:          0  USELESS:          0
PSCL2 USEFUL LOAD PREFETCHES:          0 PREFETCH ISSUED TO LOWER LEVEL:          0  ACCURACY: -nan
PSCL2 TIMELY PREFETCHES:          0 LATE PREFETCHES: 0 DROPPED PREFETCHES: 0
PSCL2 PREFETCHES SAME FILL-ORIGIN LEVEL: 0 DIFFERENT FILL-ORIGIN LEVEL: 0

LLC TOTAL     ACCESS:     402066  HIT:     344669  MISS:      57397  HIT %:    85.7245  MISS %:    14.2755   MPKI: 1.14794
LLC LOAD      ACCESS:      80631  HIT:      62163  MISS:      18468  HIT %:    77.0957  MISS %:    22.9043   MPKI: 0.36936
LLC RFO       ACCESS:      64916  HIT:      30971  MISS:      33945  HIT %:    47.7093  MISS %:    52.2907   MPKI: 0.6789
LLC PREFETCH  ACCESS:     182907  HIT:     178960  MISS:       3947  HIT %:    97.8421  MISS %:    2.15793   MPKI: 0.07894
LLC WRITEBACK ACCESS:      71816  HIT:      71146  MISS:        670  HIT %:    99.0671  MISS %:    0.93294   MPKI: 0.0134
LLC LOAD TRANSLATION ACCESS:       1702  HIT:       1338  MISS:        364  HIT %:    78.6134  MISS %:    21.3866   MPKI: 0.00728
LLC TRANSLATION FROM L1D PREFETCHER ACCESS:         94  HIT:         91  MISS:          3  HIT %:    96.8085  MISS %:    3.19149   MPKI: 6e-05
LLC PREFETCH  REQUESTED:          0  ISSUED:          0  USEFUL:        468  USELESS:       5128
LLC USEFUL LOAD PREFETCHES:        468 PREFETCH ISSUED TO LOWER LEVEL:       3950  ACCURACY: 11.8481
LLC TIMELY PREFETCHES:        468 LATE PREFETCHES: 3 DROPPED PREFETCHES: 0
LLC PREFETCHES SAME FILL-ORIGIN LEVEL: 2270 DIFFERENT FILL-ORIGIN LEVEL: 0
LLC AVERAGE MISS LATENCY: 132.153 cycles
LLC RQ	ACCESS:     147345	FORWARD:          0	MERGED:          0	TO_CACHE:     147344
LLC WQ	ACCESS:      71816	FORWARD:          1	MERGED:          0	TO_CACHE:      71816
LLC PQ	ACCESS:     183353	FORWARD:          0	MERGED:        400	TO_CACHE:     182953

LLC Dense regions hint to LLC: 0

RAW hits: 1753959
Loads Generated: 13055366
Loads sent to L1D: 11301405
Stores Generated: 6777761
Stores sent to L1D: 6777772
Major fault: 0 Minor fault: 3152
Allocated PAGES: 3152
I-Shadow cache 408 bytes
Touched + WorthPF tables 6144 bytes 
MMA filter 174 bytes 
FNL filter 272 bytes 
TOTAL PREFETCHER STORAGE SIZE: 25174 bytes
CPU 0 L1I next line prefetcher final stats
 All Calls: 1902441
 Critical Calls: 1485132
------------------
Depth Distribution
------------------
depth 0: 0
depth 1: 1346036
depth 2: 413895
depth 3: 20335
depth 4: 1493
depth 5: 15
depth 6: 6
depth 7: 1
depth 8: 0
depth 9: 0
depth 10: 0
depth 11: 0
depth 12: 0
depth 13: 0
depth 14: 0
depth 15: 0
depth 16: 0
depth 17: 0
depth 18: 0
depth 19: 0
depth 20: 0
depth 21: 0
depth 22: 0
depth 23: 0
depth 24: 0
depth 25: 0
depth 26: 0
depth 27: 0
depth 28: 0
depth 29: 0
Total: 1781781
-----------------------------
-----------------------------
	Captured at Filter
-----------------------------
depth 0: 0
depth 1: 111005
depth 2: 50740
depth 3: 15775
depth 4: 3373
depth 5: 150
depth 6: 5
depth 7: 2
depth 8: 0
depth 9: 0
depth 10: 0
depth 11: 0
depth 12: 0
depth 13: 0
depth 14: 0
depth 15: 0
depth 16: 0
depth 17: 0
depth 18: 0
depth 19: 0
depth 20: 0
depth 21: 0
depth 22: 0
depth 23: 0
depth 24: 0
depth 25: 0
depth 26: 0
depth 27: 0
depth 28: 0
depth 29: 0
-----------------------------
-----------------------------
		Lost at Page
-----------------------------
depth 0: 0
depth 1: 30642
depth 2: 13969
depth 3: 262
depth 4: 1
depth 5: 0
depth 6: 0
depth 7: 0
depth 8: 0
depth 9: 0
depth 10: 0
depth 11: 0
depth 12: 0
depth 13: 0
depth 14: 0
depth 15: 0
depth 16: 0
depth 17: 0
depth 18: 0
depth 19: 0
depth 20: 0
depth 21: 0
depth 22: 0
depth 23: 0
depth 24: 0
depth 25: 0
depth 26: 0
depth 27: 0
depth 28: 0
depth 29: 0
-----------------------------
-----------------------------
	Lost due to PQ Size
-----------------------------
941
-----------------------------
ST read accesses: 628461
ST write accesses: 5848
PT read accesses: 8840537
PT write accesses: 881053
FILTER read accesses: 1687056
FILTER write accesses: 218850
GHR read accesses: 150003
GHR write accesses: 18898
GHR counter read accesses: 7159782
GHR counter write accesses: 644367
ST tag read accesses: 246965477
ST tag write accesses: 10717012

DRAM Statistics
 CHANNEL 0
 RQ ROW_BUFFER_HIT:      23554  ROW_BUFFER_MISS:      33173
 DBUS_CONGESTED:        106
 WQ ROW_BUFFER_HIT:       7085  ROW_BUFFER_MISS:      27185  FULL:          0

 AVG_CONGESTED_CYCLE: 2
 All warmup complete: 2
Channel 0 Bank busy for read cycles: 0
Channel 0 Bank busy for write cycles: 0
Channel 0
Rank 0
0banks busy for read cycles: 58106529
0banks busy for write cycles: 13611
1banks busy for read cycles: 3338734
1banks busy for write cycles: 2000831
2banks busy for read cycles: 433280
2banks busy for write cycles: 403323
3banks busy for read cycles: 121075
3banks busy for write cycles: 122831
4banks busy for read cycles: 48539
4banks busy for write cycles: 62009
5banks busy for read cycles: 47379
5banks busy for write cycles: 40457
6banks busy for read cycles: 47312
6banks busy for write cycles: 38967
7banks busy for read cycles: 46454
7banks busy for write cycles: 47640
8banks busy for read cycles: 68234
8banks busy for write cycles: 143246

CPU 0 Branch Prediction Accuracy: 99.2117% MPKI: 1.49752 Average ROB Occupancy at Mispredict: 50.6596
Branch types
NOT_BRANCH: 40501574 81.0031%
BRANCH_DIRECT_JUMP: 517397 1.03479%
BRANCH_INDIRECT: 112347 0.224694%
BRANCH_CONDITIONAL: 6698733 13.3975%
BRANCH_DIRECT_CALL: 960973 1.92195%
BRANCH_INDIRECT_CALL: 123707 0.247414%
BRANCH_RETURN: 1084929 2.16986%
BRANCH_OTHER: 0 0%

DRAM PAGES: 1048576
Allocated PAGES: 3152
