Initialize SIGNATURE TABLE
ST_SET: 1
ST_WAY: 256
ST_TAG_BIT: 16
ST_TAG_MASK: ffff

Initialize PATTERN TABLE
PT_SET: 512
PT_WAY: 4
SIG_DELTA_BIT: 7
C_SIG_BIT: 4
C_DELTA_BIT: 4

Initialize PREFETCH FILTER
FILTER_SET: 1024

*** ChampSim Multicore Out-of-Order Simulator ***

Warmup Instructions: 50000000
Simulation Instructions: 50000000
Number of CPUs: 1
LLC sets: 2048
LLC ways: 16
Off-chip DRAM Size: 4096 MB Channels: 1 Width: 64-bit Data Rate: 6400 MT/s
CPU 0 runs ../IPC-traces//client_002.champsimtrace.xz
.xz
NUM_OF_IPS_IN_CRITICAL_IP_TRAINING: 64
NUM_OF_CRITICAL_IP_TRAINING_TABLE_WAYS: 2
NUM_OF_CRITICAL_IP_TRAINING_TABLE_SETS: 32
WOBBLY_CRITICAL_IP_CACHE_SETS: 32
WOBBLY_CRITICAL_IP_CACHE_WAYS: 4
BTB has LRU replacement policy
ITLB has LRU replacement policy
DTLB has LRU replacement policy
STLB has LRU replacement policy
CPU 0 L1I next line prefetcher
L1I has LRU replacement policy
L1D has LRU replacement policy
ST_WAYS: 256
PT_SETS: 512
Initialize SRRIP state for L2C
Initialize DRRIP state for LLC
Heartbeat CPU 0 instructions: 10000000 cycles: 2817529 heartbeat IPC: 3.54921 cumulative IPC: 3.54921 (Simulation time: 0 hr 3 min 20 sec) 
Heartbeat CPU 0 instructions: 20000001 cycles: 5653747 heartbeat IPC: 3.52582 cumulative IPC: 3.53748 (Simulation time: 0 hr 5 min 50 sec) 
Heartbeat CPU 0 instructions: 30000002 cycles: 8485424 heartbeat IPC: 3.53148 cumulative IPC: 3.53547 (Simulation time: 0 hr 8 min 9 sec) 
Heartbeat CPU 0 instructions: 40000000 cycles: 11322207 heartbeat IPC: 3.52512 cumulative IPC: 3.53288 (Simulation time: 0 hr 10 min 22 sec) 
Heartbeat CPU 0 instructions: 50000002 cycles: 14144887 heartbeat IPC: 3.54273 cumulative IPC: 3.53485 (Simulation time: 0 hr 12 min 20 sec) 

Warmup complete CPU 0 instructions: 50000002 cycles: 14144887 (Simulation time: 0 hr 12 min 20 sec) 

% increase in all ip prefetch 277.219
% increase in all ip prefetch -2.85768
Heartbeat CPU 0 instructions: 60000001 cycles: 26814735 heartbeat IPC: 0.789275 cumulative IPC: 0.789275 (Simulation time: 0 hr 14 min 44 sec) 
Heartbeat CPU 0 instructions: 70000000 cycles: 39580009 heartbeat IPC: 0.783375 cumulative IPC: 0.786314 (Simulation time: 0 hr 17 min 0 sec) 
Heartbeat CPU 0 instructions: 80000000 cycles: 52196862 heartbeat IPC: 0.792591 cumulative IPC: 0.788395 (Simulation time: 0 hr 19 min 16 sec) 
Heartbeat CPU 0 instructions: 90000001 cycles: 65410024 heartbeat IPC: 0.756821 cumulative IPC: 0.780257 (Simulation time: 0 hr 21 min 34 sec) 
Heartbeat CPU 0 instructions: 100000003 cycles: 78074270 heartbeat IPC: 0.789625 cumulative IPC: 0.782113 (Simulation time: 0 hr 23 min 48 sec) 
Finished CPU 0 instructions: 50000001 cycles: 63929383 cumulative IPC: 0.782113 (Simulation time: 0 hr 23 min 48 sec) 

ChampSim completed all CPUs

Region of Interest Statistics

CPU 0 cumulative IPC: 0.782113 instructions: 50000001 cycles: 63929383

CPU 0 Average Load ROB stall cycles: 1.7601e+07
CPU 0 Fraction of times ROB stalled by Loads: 38.2478
CPU 0 Percentage of Load stall cycles in Total stall cycles: 2.73631e+08
Issued all: 27001843
Issued LT all: 21338471
rob_not_full_when_issued_lt_all: 20972814
Issued LT one: 15992800
rob_not_full_when_issued_lt_one: 15681015
critical_ip_candidate_identification_operations: 6069164
critical_ip_candidate_identification_operation_per_cycle: 0.0949354
 Total stall cycles: 51034499
 Total load stall cycles: 139646006303658
Unique Load IPs: 28376
CPU 0 NUM of IPS identified critical: 25
CPU 0 Num of Load IPs stalling ROB: 19212
Threshold modification factor: -1
Max PIST entries: 64
Min PIST entries: 0
Avg PIST entries: 32
Trouble in retire width: 0.876345
MaC = Marked as critical.
lt_50_percent_before_Mac: 18
gt_90_percent_before_Mac: 0
gt_75_percent_before_Mac: 2
gt_50_percent_before_Mac: 5
stall_proportion_bin_same_before_after: 0
stall_proportion_bin_lower_before_after: 0
stall_proportion_bin_upper_before_after: 0
average_stall_proportion_before: 0.0602786
average_stall_proportion_after: 0.0617659
Critical IP stalls, total frequency: 202712
Non-critical IP stalls, total frequency: 2831870
Total Freq all stalling IPs: 3034582
Critical_IP_Detector_Accuracy_70: 0.84
Critical_IP_Detector_Accuracy_80: 0.96
Critical_IP_Detector_Accuracy_90: 1
Critical_IP_Detector_Coverage_70: 0.0459519
Critical_IP_Detector_Coverage_80: 0.0303413
Critical_IP_Detector_Coverage_90: 0.0155958
stat_90_percent_critical_ip_stalls_freq: 2731275
stat_90_percent_non_critical_ip_stalls_freq: 303307
AVERAGE_ROB_Occupancy_90_Percent_Critical_IP_Stalls: 60.903
AVERAGE_ROB_Occupancy_90_Percent_Non_Critical_IP_Stalls: 36.5189
Critical_IP_ROB_Stalls_Bucket_0: 78776
Non-critical_IP_ROB_Stalls_Bucket_0: 1584465
Critical_IP_ROB_Stalls_Bucket_1: 64369
Non-critical_IP_ROB_Stalls_Bucket_1: 870096
Critical_IP_ROB_Stalls_Bucket_2: 24915
Non-critical_IP_ROB_Stalls_Bucket_2: 285937
Critical_IP_ROB_Stalls_Bucket_3: 10318
Non-critical_IP_ROB_Stalls_Bucket_3: 67442
Critical_IP_ROB_Stalls_Bucket_4: 5722
Non-critical_IP_ROB_Stalls_Bucket_4: 14782
Critical_IP_ROB_Stalls_Bucket_5: 3693
Non-critical_IP_ROB_Stalls_Bucket_5: 4510
Critical_IP_ROB_Stalls_Bucket_6: 14919
Non-critical_IP_ROB_Stalls_Bucket_6: 4638
0 => IPs accounting for >50 percent of stalls, 1 => 55, 2 => 60, 3 => 65 and so on till 90.
percent50: 50.0187 num IPs:  146
percent55: 55.0875 num IPs: 193
percent60: 60.0485 num IPs: 255
percent65: 65.0375 num IPs: 340
percent70: 70.0306 num IPs: 457
percent75: 75.0095 num IPs: 609
percent80: 80.0198 num IPs: 791
percent85: 85.004 num IPs: 1050
percent90: 90.0052 num IPs: 1603
Critical_ROB_Stalls_Percent_0_Bucket_0: 769361
Non-critical_ROB_Stalls_Percent_0_Bucket_0: 893880
Critical_ROB_Stalls_Percent_0_Bucket_1: 499869
Non-critical_ROB_Stalls_Percent_0_Bucket_1: 434596
Critical_ROB_Stalls_Percent_0_Bucket_2: 177175
Non-critical_ROB_Stalls_Percent_0_Bucket_2: 133677
Critical_ROB_Stalls_Percent_0_Bucket_3: 41621
Non-critical_ROB_Stalls_Percent_0_Bucket_3: 36139
Critical_ROB_Stalls_Percent_0_Bucket_4: 12117
Non-critical_ROB_Stalls_Percent_0_Bucket_4: 8387
Critical_ROB_Stalls_Percent_0_Bucket_5: 4446
Non-critical_ROB_Stalls_Percent_0_Bucket_5: 3757
Critical_ROB_Stalls_Percent_0_Bucket_6: 13269
Non-critical_ROB_Stalls_Percent_0_Bucket_6: 6288
Critical_ROB_Stalls_Percent_1_Bucket_0: 847065
Non-critical_ROB_Stalls_Percent_1_Bucket_0: 816176
Critical_ROB_Stalls_Percent_1_Bucket_1: 549469
Non-critical_ROB_Stalls_Percent_1_Bucket_1: 384996
Critical_ROB_Stalls_Percent_1_Bucket_2: 199195
Non-critical_ROB_Stalls_Percent_1_Bucket_2: 111657
Critical_ROB_Stalls_Percent_1_Bucket_3: 44735
Non-critical_ROB_Stalls_Percent_1_Bucket_3: 33025
Critical_ROB_Stalls_Percent_1_Bucket_4: 12921
Non-critical_ROB_Stalls_Percent_1_Bucket_4: 7583
Critical_ROB_Stalls_Percent_1_Bucket_5: 4862
Non-critical_ROB_Stalls_Percent_1_Bucket_5: 3341
Critical_ROB_Stalls_Percent_1_Bucket_6: 13428
Non-critical_ROB_Stalls_Percent_1_Bucket_6: 6129
Critical_ROB_Stalls_Percent_2_Bucket_0: 920760
Non-critical_ROB_Stalls_Percent_2_Bucket_0: 742481
Critical_ROB_Stalls_Percent_2_Bucket_1: 595860
Non-critical_ROB_Stalls_Percent_2_Bucket_1: 338605
Critical_ROB_Stalls_Percent_2_Bucket_2: 218610
Non-critical_ROB_Stalls_Percent_2_Bucket_2: 92242
Critical_ROB_Stalls_Percent_2_Bucket_3: 52617
Non-critical_ROB_Stalls_Percent_2_Bucket_3: 25143
Critical_ROB_Stalls_Percent_2_Bucket_4: 14495
Non-critical_ROB_Stalls_Percent_2_Bucket_4: 6009
Critical_ROB_Stalls_Percent_2_Bucket_5: 5569
Non-critical_ROB_Stalls_Percent_2_Bucket_5: 2634
Critical_ROB_Stalls_Percent_2_Bucket_6: 14311
Non-critical_ROB_Stalls_Percent_2_Bucket_6: 5246
Critical_ROB_Stalls_Percent_3_Bucket_0: 988593
Non-critical_ROB_Stalls_Percent_3_Bucket_0: 674648
Critical_ROB_Stalls_Percent_3_Bucket_1: 657383
Non-critical_ROB_Stalls_Percent_3_Bucket_1: 277082
Critical_ROB_Stalls_Percent_3_Bucket_2: 234416
Non-critical_ROB_Stalls_Percent_3_Bucket_2: 76436
Critical_ROB_Stalls_Percent_3_Bucket_3: 56579
Non-critical_ROB_Stalls_Percent_3_Bucket_3: 21181
Critical_ROB_Stalls_Percent_3_Bucket_4: 15680
Non-critical_ROB_Stalls_Percent_3_Bucket_4: 4824
Critical_ROB_Stalls_Percent_3_Bucket_5: 6156
Non-critical_ROB_Stalls_Percent_3_Bucket_5: 2047
Critical_ROB_Stalls_Percent_3_Bucket_6: 14807
Non-critical_ROB_Stalls_Percent_3_Bucket_6: 4750
Critical_ROB_Stalls_Percent_4_Bucket_0: 1065478
Non-critical_ROB_Stalls_Percent_4_Bucket_0: 597763
Critical_ROB_Stalls_Percent_4_Bucket_1: 713963
Non-critical_ROB_Stalls_Percent_4_Bucket_1: 220502
Critical_ROB_Stalls_Percent_4_Bucket_2: 248768
Non-critical_ROB_Stalls_Percent_4_Bucket_2: 62084
Critical_ROB_Stalls_Percent_4_Bucket_3: 58935
Non-critical_ROB_Stalls_Percent_4_Bucket_3: 18825
Critical_ROB_Stalls_Percent_4_Bucket_4: 16530
Non-critical_ROB_Stalls_Percent_4_Bucket_4: 3974
Critical_ROB_Stalls_Percent_4_Bucket_5: 6405
Non-critical_ROB_Stalls_Percent_4_Bucket_5: 1798
Critical_ROB_Stalls_Percent_4_Bucket_6: 15057
Non-critical_ROB_Stalls_Percent_4_Bucket_6: 4500
Critical_ROB_Stalls_Percent_5_Bucket_0: 1148417
Non-critical_ROB_Stalls_Percent_5_Bucket_0: 514824
Critical_ROB_Stalls_Percent_5_Bucket_1: 760005
Non-critical_ROB_Stalls_Percent_5_Bucket_1: 174460
Critical_ROB_Stalls_Percent_5_Bucket_2: 263266
Non-critical_ROB_Stalls_Percent_5_Bucket_2: 47586
Critical_ROB_Stalls_Percent_5_Bucket_3: 63003
Non-critical_ROB_Stalls_Percent_5_Bucket_3: 14757
Critical_ROB_Stalls_Percent_5_Bucket_4: 17232
Non-critical_ROB_Stalls_Percent_5_Bucket_4: 3272
Critical_ROB_Stalls_Percent_5_Bucket_5: 6818
Non-critical_ROB_Stalls_Percent_5_Bucket_5: 1385
Critical_ROB_Stalls_Percent_5_Bucket_6: 17483
Non-critical_ROB_Stalls_Percent_5_Bucket_6: 2074
Critical_ROB_Stalls_Percent_6_Bucket_0: 1224790
Non-critical_ROB_Stalls_Percent_6_Bucket_0: 438451
Critical_ROB_Stalls_Percent_6_Bucket_1: 809449
Non-critical_ROB_Stalls_Percent_6_Bucket_1: 125016
Critical_ROB_Stalls_Percent_6_Bucket_2: 281181
Non-critical_ROB_Stalls_Percent_6_Bucket_2: 29671
Critical_ROB_Stalls_Percent_6_Bucket_3: 69678
Non-critical_ROB_Stalls_Percent_6_Bucket_3: 8082
Critical_ROB_Stalls_Percent_6_Bucket_4: 18058
Non-critical_ROB_Stalls_Percent_6_Bucket_4: 2446
Critical_ROB_Stalls_Percent_6_Bucket_5: 6971
Non-critical_ROB_Stalls_Percent_6_Bucket_5: 1232
Critical_ROB_Stalls_Percent_6_Bucket_6: 18138
Non-critical_ROB_Stalls_Percent_6_Bucket_6: 1419
Critical_ROB_Stalls_Percent_7_Bucket_0: 1326039
Non-critical_ROB_Stalls_Percent_7_Bucket_0: 337202
Critical_ROB_Stalls_Percent_7_Bucket_1: 849472
Non-critical_ROB_Stalls_Percent_7_Bucket_1: 84993
Critical_ROB_Stalls_Percent_7_Bucket_2: 288268
Non-critical_ROB_Stalls_Percent_7_Bucket_2: 22584
Critical_ROB_Stalls_Percent_7_Bucket_3: 71450
Non-critical_ROB_Stalls_Percent_7_Bucket_3: 6310
Critical_ROB_Stalls_Percent_7_Bucket_4: 18688
Non-critical_ROB_Stalls_Percent_7_Bucket_4: 1816
Critical_ROB_Stalls_Percent_7_Bucket_5: 7267
Non-critical_ROB_Stalls_Percent_7_Bucket_5: 936
Critical_ROB_Stalls_Percent_7_Bucket_6: 18333
Non-critical_ROB_Stalls_Percent_7_Bucket_6: 1224
Critical_ROB_Stalls_Percent_8_Bucket_0: 1428237
Non-critical_ROB_Stalls_Percent_8_Bucket_0: 235004
Critical_ROB_Stalls_Percent_8_Bucket_1: 886430
Non-critical_ROB_Stalls_Percent_8_Bucket_1: 48035
Critical_ROB_Stalls_Percent_8_Bucket_2: 296794
Non-critical_ROB_Stalls_Percent_8_Bucket_2: 14058
Critical_ROB_Stalls_Percent_8_Bucket_3: 73682
Non-critical_ROB_Stalls_Percent_8_Bucket_3: 4078
Critical_ROB_Stalls_Percent_8_Bucket_4: 19564
Non-critical_ROB_Stalls_Percent_8_Bucket_4: 940
Critical_ROB_Stalls_Percent_8_Bucket_5: 7609
Non-critical_ROB_Stalls_Percent_8_Bucket_5: 594
Critical_ROB_Stalls_Percent_8_Bucket_6: 18959
Non-critical_ROB_Stalls_Percent_8_Bucket_6: 598
Average ROB occupancy Load Stall Begin: 49.085
Average ROB occupancy Load Stall End: 58.4658
Min ROB occupancy Load Stall Begin: 1
Max ROB occupancy Load Stall Begin: 352
Min ROB occupancy Load Stall End: 1
Max ROB occupancy Load Stall End: 352
Average ROB occupancy Critical Load Stall Begin: 90.3213
Average ROB occupancy Critical Load Stall End: 99.8035
Min ROB occupancy Critical Load Stall Begin: 2
Max ROB occupancy Critical Load Stall Begin: 352
Min ROB occupancy Critical Load Stall End: 2
Max ROB occupancy Critical Load Stall End: 352
 ROB Load Stall Begin Bucket Count 0: 1977145
 ROB Load Stall End Bucket Count 0: 1663241
 ROB Critical Load Stall Begin Bucket Count 0: 77930
 ROB Critical Load Stall End Bucket Count 0: 62183
 ROB Load Stall Begin Bucket Count 1: 730975
 ROB Load Stall End Bucket Count 1: 934465
 ROB Critical Load Stall Begin Bucket Count 1: 41701
 ROB Critical Load Stall End Bucket Count 1: 51229
 ROB Load Stall Begin Bucket Count 2: 229790
 ROB Load Stall End Bucket Count 2: 310852
 ROB Critical Load Stall Begin Bucket Count 2: 15437
 ROB Critical Load Stall End Bucket Count 2: 19651
 ROB Load Stall Begin Bucket Count 3: 56081
 ROB Load Stall End Bucket Count 3: 77760
 ROB Critical Load Stall Begin Bucket Count 3: 7539
 ROB Critical Load Stall End Bucket Count 3: 8516
 ROB Load Stall Begin Bucket Count 4: 15497
 ROB Load Stall End Bucket Count 4: 20504
 ROB Critical Load Stall Begin Bucket Count 4: 4132
 ROB Critical Load Stall End Bucket Count 4: 4679
 ROB Load Stall Begin Bucket Count 5: 6824
 ROB Load Stall End Bucket Count 5: 8203
 ROB Critical Load Stall Begin Bucket Count 5: 2856
 ROB Critical Load Stall End Bucket Count 5: 3019
 ROB Load Stall Begin Bucket Count 6: 18270
 ROB Load Stall End Bucket Count 6: 19557
 ROB Critical Load Stall Begin Bucket Count 6: 13553
 ROB Critical Load Stall End Bucket Count 6: 13871
PIST Tag Read Accesses: 3158090
PIST Read Accesses: 1579045
PIST Tag Write Accesses: 3158090
PIST Write Accesses: 1579045
Criticality detector called times: 2871434
Max global_stall_cycles_count: 3005831
Threshold Modified: 1 times, factor: -1
Sturdy critical IP cache stats: 
 Unused entries: 0
CIC Tag Read Accesses: 0
CIC Read Accesses: 0
CIC Tag Write Accesses: 0
CIC Write Accesses: 0
Wobbly critical IP cache stats: 
 Unused entries: 103
CIC Tag Read Accesses: 82533271
CIC Read Accesses: 0
CIC Tag Write Accesses: 1801
CIC Write Accesses: 0
ITLB TOTAL     ACCESS:    9215455  HIT:    9084591  MISS:     130864  HIT %:      98.58  MISS %:    1.42005   MPKI: 2.61728
ITLB LOAD TRANSLATION ACCESS:    8314424  HIT:    8269254  MISS:      45170  HIT %:    99.4567  MISS %:   0.543273   MPKI: 0.9034
ITLB TRANSLATION FROM L1D PREFETCHER ACCESS:     901031  HIT:     815337  MISS:      85694  HIT %:    90.4893  MISS %:    9.51066   MPKI: 1.71388
ITLBprefetch_cycle_count: 0 prefetches_per_prefetch_cycle: -nan
ITLB PREFETCH  REQUESTED:          0  ISSUED:          0  USEFUL:      69348  USELESS:      16347
ITLB USEFUL LOAD PREFETCHES:      69348 PREFETCH ISSUED TO LOWER LEVEL:          0  ACCURACY: inf
ITLB TIMELY PREFETCHES:      69348 LATE PREFETCHES: 213 DROPPED PREFETCHES: 252
ITLB PREFETCHES SAME FILL-ORIGIN LEVEL: 0 DIFFERENT FILL-ORIGIN LEVEL: 0
ITLB AVERAGE MISS LATENCY: 73996.5 cycles
ITLB RQ	ACCESS:   12651954	FORWARD:          0	MERGED:    3418682	TO_CACHE:    9233272

DTLB TOTAL     ACCESS:   10067473  HIT:    9908768  MISS:     158705  HIT %:    98.4236  MISS %:    1.57641   MPKI: 3.1741
DTLB LOAD TRANSLATION ACCESS:   10067473  HIT:    9908768  MISS:     158705  HIT %:    98.4236  MISS %:    1.57641   MPKI: 3.1741
DTLBprefetch_cycle_count: 0 prefetches_per_prefetch_cycle: -nan
DTLB PREFETCH  REQUESTED:          0  ISSUED:          0  USEFUL:          0  USELESS:          0
DTLB USEFUL LOAD PREFETCHES:          0 PREFETCH ISSUED TO LOWER LEVEL:          0  ACCURACY: -nan
DTLB TIMELY PREFETCHES:          0 LATE PREFETCHES: 0 DROPPED PREFETCHES: 0
DTLB PREFETCHES SAME FILL-ORIGIN LEVEL: 0 DIFFERENT FILL-ORIGIN LEVEL: 0
DTLB AVERAGE MISS LATENCY: 11.2067 cycles
DTLB RQ	ACCESS:   13627691	FORWARD:          0	MERGED:    3542780	TO_CACHE:   10084911

STLB TOTAL     ACCESS:     289569  HIT:     281287  MISS:       8282  HIT %:    97.1399  MISS %:    2.86011   MPKI: 0.16564
STLB LOAD TRANSLATION ACCESS:     203662  HIT:     196236  MISS:       7426  HIT %:    96.3538  MISS %:    3.64624   MPKI: 0.14852
STLB TRANSLATION FROM L1D PREFETCHER ACCESS:      85907  HIT:      85051  MISS:        856  HIT %:    99.0036  MISS %:   0.996426   MPKI: 0.01712
STLBprefetch_cycle_count: 0 prefetches_per_prefetch_cycle: -nan
STLB PREFETCH  REQUESTED:          0  ISSUED:          0  USEFUL:        285  USELESS:        571
STLB USEFUL LOAD PREFETCHES:        285 PREFETCH ISSUED TO LOWER LEVEL:          0  ACCURACY: inf
STLB TIMELY PREFETCHES:        285 LATE PREFETCHES: 0 DROPPED PREFETCHES: 252
STLB PREFETCHES SAME FILL-ORIGIN LEVEL: 0 DIFFERENT FILL-ORIGIN LEVEL: 0
STLB AVERAGE MISS LATENCY: 49.6019 cycles
STLB RQ	ACCESS:     289821	FORWARD:          0	MERGED:          0	TO_CACHE:     289821

STLB Hit, L1D data hit: 0
STLB Hit, L2C data hit: 0
STLB Hit, LLC data hit: 0
STLB Hit, LLC data miss: 0
STLB STLB hints to L2: 0
L1D TOTAL     ACCESS:   13400847  HIT:   13160041  MISS:     240806  HIT %:    98.2031  MISS %:    1.79695   MPKI: 4.81612
L1D LOAD      ACCESS:    7025302  HIT:    6881835  MISS:     143467  HIT %:    97.9579  MISS %:    2.04215   MPKI: 2.86934
L1D RFO       ACCESS:    6375545  HIT:    6278206  MISS:      97339  HIT %:    98.4732  MISS %:    1.52676   MPKI: 1.94678
L1Dprefetch_cycle_count: 0 prefetches_per_prefetch_cycle: -nan
L1D PREFETCH  REQUESTED:          0  ISSUED:          0  USEFUL:          0  USELESS:          0
L1D USEFUL LOAD PREFETCHES:          0 PREFETCH ISSUED TO LOWER LEVEL:          0  ACCURACY: -nan
L1D TIMELY PREFETCHES:          0 LATE PREFETCHES: 0 DROPPED PREFETCHES: 0
L1D PREFETCHES SAME FILL-ORIGIN LEVEL: 0 DIFFERENT FILL-ORIGIN LEVEL: 0
L1D AVERAGE MISS LATENCY: 49.6459 cycles
L1D RQ	ACCESS:   11304814	FORWARD:          0	MERGED:    4093390	TO_CACHE:    7035976
L1D WQ	ACCESS:    6777772	FORWARD:     175448	MERGED:     186057	TO_CACHE:    6591715

L1D UNIQUE REGIONS ACCESSED: 0
L1D REGIONS CONFLICTS: 0
L1D Cross Page Prefetch Requests: 0
L1D Same Page Prefetch Requests: 0
L1D ROI Sum of L1D PQ occupancy: 0
L1D PREFETCHES PUSHED FROM L2C: 0
L1I TOTAL     ACCESS:   12563452  HIT:   11605593  MISS:     957859  HIT %:    92.3758  MISS %:    7.62417   MPKI: 19.1572
L1I LOAD      ACCESS:    9989767  HIT:    9814929  MISS:     174838  HIT %:    98.2498  MISS %:    1.75017   MPKI: 3.49676
L1I PREFETCH  ACCESS:    2573685  HIT:    1790664  MISS:     783021  HIT %:    69.5759  MISS %:    30.4241   MPKI: 15.6604
L1Iprefetch_cycle_count: 0 prefetches_per_prefetch_cycle: inf
L1I PREFETCH  REQUESTED:    2756876  ISSUED:    2749977  USEFUL:     528034  USELESS:     254998
L1I USEFUL LOAD PREFETCHES:     528034 PREFETCH ISSUED TO LOWER LEVEL:     799196  ACCURACY: 66.0707
L1I TIMELY PREFETCHES:     528034 LATE PREFETCHES: 16175 DROPPED PREFETCHES: 507
L1I PREFETCHES SAME FILL-ORIGIN LEVEL: 799196 DIFFERENT FILL-ORIGIN LEVEL: 0
L1I AVERAGE MISS LATENCY: 776166 cycles
L1I RQ	ACCESS:   15029778	FORWARD:          0	MERGED:    5016187	TO_CACHE:   10013591
L1I PQ	ACCESS:    2749977	FORWARD:          0	MERGED:     111614	TO_CACHE:    2638363

BTB TOTAL     ACCESS:    6850856  HIT:    6216517  MISS:     634339  HIT %:    90.7407  MISS %:    9.25927   MPKI: 12.6868
BTB BRANCH_DIRECT_JUMP	ACCESS:     517397  HIT:     498758  MISS:      18639
BTB BRANCH_INDIRECT	ACCESS:     112347  HIT:      56826  MISS:      55521
BTB BRANCH_CONDITIONAL	ACCESS:    4051503  HIT:    3997511  MISS:      53992
BTB BRANCH_DIRECT_CALL	ACCESS:     960973  HIT:     922167  MISS:      38806
BTB BRANCH_INDIRECT_CALL	ACCESS:     123707  HIT:      94699  MISS:      29008
BTB BRANCH_RETURN	ACCESS:    1084929  HIT:     646556  MISS:     438373
BTB BRANCH_OTHER ACCESS:          0  HIT:          0  MISS:          0

L2C TOTAL     ACCESS:    1746915  HIT:    1493518  MISS:     253397  HIT %:    85.4946  MISS %:    14.5054   MPKI: 5.06794
L2C LOAD      ACCESS:     302127  HIT:     229273  MISS:      72854  HIT %:    75.8863  MISS %:    24.1137   MPKI: 1.45708
L2C DATA LOAD MPKI: 0.84126
L2C INSTRUCTION LOAD MPKI: 0.61582
L2C RFO       ACCESS:      97338  HIT:      28877  MISS:      68461  HIT %:    29.6667  MISS %:    70.3333   MPKI: 1.36922
L2C PREFETCH  ACCESS:    1220302  HIT:    1117622  MISS:     102680  HIT %:    91.5857  MISS %:    8.41431   MPKI: 2.0536
L2C DATA PREFETCH MPKI: 0.86006
L2C INSTRUCTION PREFETCH MPKI: 1.19354
L2C WRITEBACK ACCESS:     118337  HIT:     110815  MISS:       7522  HIT %:    93.6436  MISS %:    6.35642   MPKI: 0.15044
L2C LOAD TRANSLATION ACCESS:       7691  HIT:       5955  MISS:       1736  HIT %:    77.4282  MISS %:    22.5718   MPKI: 0.03472
L2C TRANSLATION FROM L1D PREFETCHER ACCESS:       1120  HIT:        976  MISS:        144  HIT %:    87.1429  MISS %:    12.8571   MPKI: 0.00288
L2Cprefetch_cycle_count: 664475 prefetches_per_prefetch_cycle: 1.40353
L2C PREFETCH  REQUESTED:     932614  ISSUED:     932613  USEFUL:      21203  USELESS:      80624
L2C USEFUL LOAD PREFETCHES:      21203 PREFETCH ISSUED TO LOWER LEVEL:     261216  ACCURACY: 8.11704
L2C TIMELY PREFETCHES:      21203 LATE PREFETCHES: 2157 DROPPED PREFETCHES: 0
L2C PREFETCHES SAME FILL-ORIGIN LEVEL: 45695 DIFFERENT FILL-ORIGIN LEVEL: 156379
L2C AVERAGE MISS LATENCY: 54.4344 cycles
L2C RQ	ACCESS:     408280	FORWARD:          0	MERGED:          0	TO_CACHE:     408276
L2C WQ	ACCESS:     118337	FORWARD:          7	MERGED:          0	TO_CACHE:     118337
L2C PQ	ACCESS:    1731809	FORWARD:          0	MERGED:     348139	TO_CACHE:    1383667

L2C Instructions Evicting Data 58414
L2C Translations Evicting Data 1214
L2C Data Evicting Data 96478
L2C Instructions Evicting Instructions 31429
L2C Translations Evicting Instructions 635
L2C Data Evicting Instructions 55866
L2C Instructions Evicting Translations 625
L2C Translations Evicting Translations 31
L2C Data Evicting Translations 1183
L2C Dense regions hint from L2: 0
PSCL5 TOTAL     ACCESS:       8534  HIT:       8534  MISS:          0  HIT %:        100  MISS %:          0   MPKI: 0
PSCL5 LOAD TRANSLATION ACCESS:       7426  HIT:       7426  MISS:          0  HIT %:        100  MISS %:          0   MPKI: 0
PSCL5 TRANSLATION FROM L1D PREFETCHER ACCESS:       1108  HIT:       1108  MISS:          0  HIT %:        100  MISS %:          0   MPKI: 0
PSCL5prefetch_cycle_count: 0 prefetches_per_prefetch_cycle: -nan
PSCL5 PREFETCH  REQUESTED:          0  ISSUED:          0  USEFUL:          0  USELESS:          0
PSCL5 USEFUL LOAD PREFETCHES:          0 PREFETCH ISSUED TO LOWER LEVEL:          0  ACCURACY: -nan
PSCL5 TIMELY PREFETCHES:          0 LATE PREFETCHES: 0 DROPPED PREFETCHES: 0
PSCL5 PREFETCHES SAME FILL-ORIGIN LEVEL: 0 DIFFERENT FILL-ORIGIN LEVEL: 0

PSCL4 TOTAL     ACCESS:       8534  HIT:       8534  MISS:          0  HIT %:        100  MISS %:          0   MPKI: 0
PSCL4 LOAD TRANSLATION ACCESS:       7426  HIT:       7426  MISS:          0  HIT %:        100  MISS %:          0   MPKI: 0
PSCL4 TRANSLATION FROM L1D PREFETCHER ACCESS:       1108  HIT:       1108  MISS:          0  HIT %:        100  MISS %:          0   MPKI: 0
PSCL4prefetch_cycle_count: 0 prefetches_per_prefetch_cycle: -nan
PSCL4 PREFETCH  REQUESTED:          0  ISSUED:          0  USEFUL:          0  USELESS:          0
PSCL4 USEFUL LOAD PREFETCHES:          0 PREFETCH ISSUED TO LOWER LEVEL:          0  ACCURACY: -nan
PSCL4 TIMELY PREFETCHES:          0 LATE PREFETCHES: 0 DROPPED PREFETCHES: 0
PSCL4 PREFETCHES SAME FILL-ORIGIN LEVEL: 0 DIFFERENT FILL-ORIGIN LEVEL: 0

PSCL3 TOTAL     ACCESS:       8526  HIT:       8517  MISS:          9  HIT %:    99.8944  MISS %:   0.105559   MPKI: 0.00018
PSCL3 LOAD TRANSLATION ACCESS:       7419  HIT:       7410  MISS:          9  HIT %:    99.8787  MISS %:    0.12131   MPKI: 0.00018
PSCL3 TRANSLATION FROM L1D PREFETCHER ACCESS:       1107  HIT:       1107  MISS:          0  HIT %:        100  MISS %:          0   MPKI: 0
PSCL3prefetch_cycle_count: 0 prefetches_per_prefetch_cycle: -nan
PSCL3 PREFETCH  REQUESTED:          0  ISSUED:          0  USEFUL:          0  USELESS:          0
PSCL3 USEFUL LOAD PREFETCHES:          0 PREFETCH ISSUED TO LOWER LEVEL:          0  ACCURACY: -nan
PSCL3 TIMELY PREFETCHES:          0 LATE PREFETCHES: 0 DROPPED PREFETCHES: 0
PSCL3 PREFETCHES SAME FILL-ORIGIN LEVEL: 0 DIFFERENT FILL-ORIGIN LEVEL: 0

PSCL2 TOTAL     ACCESS:       8534  HIT:       8263  MISS:        271  HIT %:    96.8245  MISS %:    3.17553   MPKI: 0.00542
PSCL2 LOAD TRANSLATION ACCESS:       7438  HIT:       7167  MISS:        271  HIT %:    96.3565  MISS %:    3.64345   MPKI: 0.00542
PSCL2 TRANSLATION FROM L1D PREFETCHER ACCESS:       1096  HIT:       1096  MISS:          0  HIT %:        100  MISS %:          0   MPKI: 0
PSCL2prefetch_cycle_count: 0 prefetches_per_prefetch_cycle: -nan
PSCL2 PREFETCH  REQUESTED:          0  ISSUED:          0  USEFUL:          0  USELESS:          0
PSCL2 USEFUL LOAD PREFETCHES:          0 PREFETCH ISSUED TO LOWER LEVEL:          0  ACCURACY: -nan
PSCL2 TIMELY PREFETCHES:          0 LATE PREFETCHES: 0 DROPPED PREFETCHES: 0
PSCL2 PREFETCHES SAME FILL-ORIGIN LEVEL: 0 DIFFERENT FILL-ORIGIN LEVEL: 0

LLC TOTAL     ACCESS:     478541  HIT:     411152  MISS:      67389  HIT %:    85.9178  MISS %:    14.0822   MPKI: 1.34778
LLC LOAD      ACCESS:      70753  HIT:      62535  MISS:       8218  HIT %:    88.3849  MISS %:    11.6151   MPKI: 0.16436
LLC RFO       ACCESS:      68405  HIT:      33990  MISS:      34415  HIT %:    49.6894  MISS %:    50.3106   MPKI: 0.6883
LLC PREFETCH  ACCESS:     260022  HIT:     236630  MISS:      23392  HIT %:    91.0038  MISS %:    8.99616   MPKI: 0.46784
LLC WRITEBACK ACCESS:      77481  HIT:      76554  MISS:        927  HIT %:    98.8036  MISS %:    1.19642   MPKI: 0.01854
LLC LOAD TRANSLATION ACCESS:       1736  HIT:       1307  MISS:        429  HIT %:     75.288  MISS %:     24.712   MPKI: 0.00858
LLC TRANSLATION FROM L1D PREFETCHER ACCESS:        144  HIT:        136  MISS:          8  HIT %:    94.4444  MISS %:    5.55556   MPKI: 0.00016
LLCprefetch_cycle_count: 0 prefetches_per_prefetch_cycle: -nan
LLC PREFETCH  REQUESTED:          0  ISSUED:          0  USEFUL:       4874  USELESS:      15056
LLC USEFUL LOAD PREFETCHES:       4874 PREFETCH ISSUED TO LOWER LEVEL:      23711  ACCURACY: 20.5559
LLC TIMELY PREFETCHES:       4874 LATE PREFETCHES: 319 DROPPED PREFETCHES: 0
LLC PREFETCHES SAME FILL-ORIGIN LEVEL: 17817 DIFFERENT FILL-ORIGIN LEVEL: 0
LLC AVERAGE MISS LATENCY: 137.54 cycles
LLC RQ	ACCESS:     141038	FORWARD:          0	MERGED:          0	TO_CACHE:     141038
LLC WQ	ACCESS:      77482	FORWARD:          0	MERGED:          0	TO_CACHE:      77482
LLC PQ	ACCESS:     261216	FORWARD:          0	MERGED:        461	TO_CACHE:     260755

LLC Dense regions hint to LLC: 0

RAW hits: 1750550
Loads Generated: 13055366
Loads sent to L1D: 11304814
Stores Generated: 6777761
Stores sent to L1D: 6777772
Major fault: 0 Minor fault: 3152
Allocated PAGES: 3152
I-Shadow cache 408 bytes
Touched + WorthPF tables 6144 bytes 
MMA filter 174 bytes 
FNL filter 272 bytes 
TOTAL PREFETCHER STORAGE SIZE: 25174 bytes
CPU 0 L1I next line prefetcher final stats
total_pref_operate_instances_l2: 934117
dynamic_config_counter_instances_l2_1: 904787
dynamic_config_counter_instances_l2_2: 16913
dynamic_config_counter_instances_l2_3: 12417
dynamic_config_counter_instances_l2_4: 0
dynamic_config_counter_instances_l2_5: 0
regions_captured: 1929
 All Calls: 1913844
 Critical Calls: 1913844
------------------
Depth Distribution
------------------
depth 0: 0
depth 1: 1536921
depth 2: 573329
depth 3: 45579
depth 4: 9460
depth 5: 2432
depth 6: 248
depth 7: 35
depth 8: 24
depth 9: 7
depth 10: 4
depth 11: 1
depth 12: 1
depth 13: 0
depth 14: 0
depth 15: 0
depth 16: 0
depth 17: 0
depth 18: 0
depth 19: 0
depth 20: 0
depth 21: 0
depth 22: 0
depth 23: 0
depth 24: 0
depth 25: 0
depth 26: 0
depth 27: 0
depth 28: 0
depth 29: 0
Total: 2168041
-----------------------------
-----------------------------
	Captured at Filter
-----------------------------
depth 0: 0
depth 1: 478581
depth 2: 198608
depth 3: 20539
depth 4: 2627
depth 5: 476
depth 6: 26
depth 7: 20
depth 8: 8
depth 9: 6
depth 10: 2
depth 11: 1
depth 12: 0
depth 13: 0
depth 14: 0
depth 15: 0
depth 16: 0
depth 17: 0
depth 18: 0
depth 19: 0
depth 20: 0
depth 21: 0
depth 22: 0
depth 23: 0
depth 24: 0
depth 25: 0
depth 26: 0
depth 27: 0
depth 28: 0
depth 29: 0
-----------------------------
-----------------------------
		Lost at Page
-----------------------------
depth 0: 0
depth 1: 54799
depth 2: 18598
depth 3: 1493
depth 4: 471
depth 5: 140
depth 6: 17
depth 7: 2
depth 8: 2
depth 9: 2
depth 10: 0
depth 11: 0
depth 12: 0
depth 13: 0
depth 14: 0
depth 15: 0
depth 16: 0
depth 17: 0
depth 18: 0
depth 19: 0
depth 20: 0
depth 21: 0
depth 22: 0
depth 23: 0
depth 24: 0
depth 25: 0
depth 26: 0
depth 27: 0
depth 28: 0
depth 29: 0
-----------------------------
-----------------------------
	Lost due to PQ Size
-----------------------------
7136
-----------------------------
ST read accesses: 893134
ST write accesses: 40983
PT read accesses: 13756187
PT write accesses: 1230898
FILTER read accesses: 2719187
FILTER write accesses: 753180
GHR read accesses: 578059
GHR write accesses: 41416
GHR counter read accesses: 11165766
GHR counter write accesses: 1478100
ST tag read accesses: 379721905
ST tag write accesses: 26717412

DRAM Statistics
 CHANNEL 0
 RQ ROW_BUFFER_HIT:      25048  ROW_BUFFER_MISS:      41413
 DBUS_CONGESTED:         40
 WQ ROW_BUFFER_HIT:       6878  ROW_BUFFER_MISS:      31195  FULL:          0

 AVG_CONGESTED_CYCLE: 3
 All warmup complete: 2
Channel 0 Bank busy for read cycles: 0
Channel 0 Bank busy for write cycles: 0
Channel 0
Rank 0
0banks busy for read cycles: 56277875
0banks busy for write cycles: 14329
1banks busy for read cycles: 3309068
1banks busy for write cycles: 1884319
2banks busy for read cycles: 773799
2banks busy for write cycles: 486303
3banks busy for read cycles: 219876
3banks busy for write cycles: 190551
4banks busy for read cycles: 100958
4banks busy for write cycles: 104974
5banks busy for read cycles: 60617
5banks busy for write cycles: 72832
6banks busy for read cycles: 47407
6banks busy for write cycles: 55393
7banks busy for read cycles: 47166
7banks busy for write cycles: 61359
8banks busy for read cycles: 78783
8banks busy for write cycles: 143775

CPU 0 Branch Prediction Accuracy: 99.2117% MPKI: 1.49752 Average ROB Occupancy at Mispredict: 47.4699
Branch types
NOT_BRANCH: 40501574 81.0031%
BRANCH_DIRECT_JUMP: 517397 1.03479%
BRANCH_INDIRECT: 112347 0.224694%
BRANCH_CONDITIONAL: 6698733 13.3975%
BRANCH_DIRECT_CALL: 960973 1.92195%
BRANCH_INDIRECT_CALL: 123707 0.247414%
BRANCH_RETURN: 1084929 2.16986%
BRANCH_OTHER: 0 0%

DRAM PAGES: 1048576
Allocated PAGES: 3152
