
*** ChampSim Multicore Out-of-Order Simulator ***

Warmup Instructions: 50000000
Simulation Instructions: 50000000
Number of CPUs: 1
LLC sets: 2048
LLC ways: 16
Off-chip DRAM Size: 4096 MB Channels: 1 Width: 64-bit Data Rate: 6400 MT/s
CPU 0 runs ../IPC-traces//server_017.champsimtrace.xz
.xz
NUM_OF_IPS_IN_CRITICAL_IP_TRAINING: 64
NUM_OF_CRITICAL_IP_TRAINING_TABLE_WAYS: 2
NUM_OF_CRITICAL_IP_TRAINING_TABLE_SETS: 32
WOBBLY_CRITICAL_IP_CACHE_SETS: 32
WOBBLY_CRITICAL_IP_CACHE_WAYS: 4
BTB has LRU replacement policy
ITLB has LRU replacement policy
DTLB has LRU replacement policy
STLB has LRU replacement policy
CPU 0 L1I next line prefetcher
L1I has LRU replacement policy
IP Table Entries: 64
L1D has LRU replacement policy
Initialize SRRIP state for L2C
Initialize DRRIP state for LLC
Heartbeat CPU 0 instructions: 10000000 cycles: 3146836 heartbeat IPC: 3.1778 cumulative IPC: 3.1778 (Simulation time: 0 hr 3 min 26 sec) 
Heartbeat CPU 0 instructions: 20000000 cycles: 6290035 heartbeat IPC: 3.18147 cumulative IPC: 3.17963 (Simulation time: 0 hr 6 min 52 sec) 
Heartbeat CPU 0 instructions: 30000002 cycles: 9443011 heartbeat IPC: 3.17161 cumulative IPC: 3.17695 (Simulation time: 0 hr 10 min 21 sec) 
Heartbeat CPU 0 instructions: 40000000 cycles: 12587957 heartbeat IPC: 3.1797 cumulative IPC: 3.17764 (Simulation time: 0 hr 13 min 51 sec) 
Heartbeat CPU 0 instructions: 50000000 cycles: 15748130 heartbeat IPC: 3.16438 cumulative IPC: 3.17498 (Simulation time: 0 hr 17 min 10 sec) 

Warmup complete CPU 0 instructions: 50000004 cycles: 15748131 (Simulation time: 0 hr 17 min 10 sec) 

% increase in all ip prefetch 420.464
% increase in all ip prefetch -15.9687
Heartbeat CPU 0 instructions: 60000000 cycles: 35453522 heartbeat IPC: 0.507475 cumulative IPC: 0.507475 (Simulation time: 0 hr 21 min 39 sec) 
Heartbeat CPU 0 instructions: 70000000 cycles: 55217899 heartbeat IPC: 0.505961 cumulative IPC: 0.506717 (Simulation time: 0 hr 26 min 2 sec) 
Heartbeat CPU 0 instructions: 80000000 cycles: 74847671 heartbeat IPC: 0.50943 cumulative IPC: 0.507618 (Simulation time: 0 hr 30 min 21 sec) 
Heartbeat CPU 0 instructions: 90000002 cycles: 100665815 heartbeat IPC: 0.387325 cumulative IPC: 0.471044 (Simulation time: 0 hr 37 min 43 sec) 
Heartbeat CPU 0 instructions: 100000003 cycles: 125396796 heartbeat IPC: 0.404351 cumulative IPC: 0.456002 (Simulation time: 0 hr 43 min 56 sec) 
Finished CPU 0 instructions: 50000003 cycles: 109648682 cumulative IPC: 0.456002 (Simulation time: 0 hr 43 min 56 sec) 

ChampSim completed all CPUs

Region of Interest Statistics

CPU 0 cumulative IPC: 0.456002 instructions: 50000003 cycles: 109648682

CPU 0 Average Load ROB stall cycles: 3.06162e+07
CPU 0 Fraction of times ROB stalled by Loads: 45.7174
CPU 0 Percentage of Load stall cycles in Total stall cycles: 2.32532e+08
Issued all: 49124241
Issued LT all: 43705182
rob_not_full_when_issued_lt_all: 17188479
Issued LT one: 38108342
rob_not_full_when_issued_lt_one: 13254509
 Total stall cycles: 92924448
 Total load stall cycles: 216079321813060
CPU 0 NUM of IPS identified critical: 0
CPU 0 Num of Load IPs stalling ROB: 5248
Threshold modification factor: -1
Max PIST entries: 64
Min PIST entries: 0
Avg PIST entries: 30.21
Trouble in retire width: 0.820798
MaC = Marked as critical.
lt_50_percent_before_Mac: 0
gt_90_percent_before_Mac: 0
gt_75_percent_before_Mac: 0
gt_50_percent_before_Mac: 0
stall_proportion_bin_same_before_after: 0
stall_proportion_bin_lower_before_after: 0
stall_proportion_bin_upper_before_after: 0
average_stall_proportion_before: -nan
average_stall_proportion_after: -nan
Critical IP stalls, total frequency: 0
Non-critical IP stalls, total frequency: 3226585
Total Freq all stalling IPs: 3226585
stat_90_percent_critical_ip_stalls_freq: 2905148
stat_90_percent_non_critical_ip_stalls_freq: 321437
Critical_IP_ROB_Stalls_Bucket_0: 0
Non-critical_IP_ROB_Stalls_Bucket_0: 467281
Critical_IP_ROB_Stalls_Bucket_1: 0
Non-critical_IP_ROB_Stalls_Bucket_1: 594127
Critical_IP_ROB_Stalls_Bucket_2: 0
Non-critical_IP_ROB_Stalls_Bucket_2: 477637
Critical_IP_ROB_Stalls_Bucket_3: 0
Non-critical_IP_ROB_Stalls_Bucket_3: 325740
Critical_IP_ROB_Stalls_Bucket_4: 0
Non-critical_IP_ROB_Stalls_Bucket_4: 185168
Critical_IP_ROB_Stalls_Bucket_5: 0
Non-critical_IP_ROB_Stalls_Bucket_5: 166642
Critical_IP_ROB_Stalls_Bucket_6: 0
Non-critical_IP_ROB_Stalls_Bucket_6: 1009990
0 => IPs accounting for >50 percent of stalls, 1 => 55, 2 => 60, 3 => 65 and so on till 90.
percent50: 50.1595 num IPs:  8
percent55: 55.0382 num IPs: 15
percent60: 60.1818 num IPs: 36
percent65: 65.0154 num IPs: 71
percent70: 70.0644 num IPs: 130
percent75: 75.0504 num IPs: 206
percent80: 80.0238 num IPs: 283
percent85: 85.036 num IPs: 366
percent90: 90.0379 num IPs: 469
Critical_ROB_Stalls_Percent_0_Bucket_0: 35860
Non-critical_ROB_Stalls_Percent_0_Bucket_0: 431421
Critical_ROB_Stalls_Percent_0_Bucket_1: 90711
Non-critical_ROB_Stalls_Percent_0_Bucket_1: 503416
Critical_ROB_Stalls_Percent_0_Bucket_2: 180509
Non-critical_ROB_Stalls_Percent_0_Bucket_2: 297128
Critical_ROB_Stalls_Percent_0_Bucket_3: 180814
Non-critical_ROB_Stalls_Percent_0_Bucket_3: 144926
Critical_ROB_Stalls_Percent_0_Bucket_4: 123753
Non-critical_ROB_Stalls_Percent_0_Bucket_4: 61415
Critical_ROB_Stalls_Percent_0_Bucket_5: 114662
Non-critical_ROB_Stalls_Percent_0_Bucket_5: 51980
Critical_ROB_Stalls_Percent_0_Bucket_6: 892129
Non-critical_ROB_Stalls_Percent_0_Bucket_6: 117861
Critical_ROB_Stalls_Percent_1_Bucket_0: 60681
Non-critical_ROB_Stalls_Percent_1_Bucket_0: 406600
Critical_ROB_Stalls_Percent_1_Bucket_1: 146113
Non-critical_ROB_Stalls_Percent_1_Bucket_1: 448014
Critical_ROB_Stalls_Percent_1_Bucket_2: 202061
Non-critical_ROB_Stalls_Percent_1_Bucket_2: 275576
Critical_ROB_Stalls_Percent_1_Bucket_3: 212185
Non-critical_ROB_Stalls_Percent_1_Bucket_3: 113555
Critical_ROB_Stalls_Percent_1_Bucket_4: 132687
Non-critical_ROB_Stalls_Percent_1_Bucket_4: 52481
Critical_ROB_Stalls_Percent_1_Bucket_5: 125342
Non-critical_ROB_Stalls_Percent_1_Bucket_5: 41300
Critical_ROB_Stalls_Percent_1_Bucket_6: 896785
Non-critical_ROB_Stalls_Percent_1_Bucket_6: 113205
Critical_ROB_Stalls_Percent_2_Bucket_0: 134252
Non-critical_ROB_Stalls_Percent_2_Bucket_0: 333029
Critical_ROB_Stalls_Percent_2_Bucket_1: 192384
Non-critical_ROB_Stalls_Percent_2_Bucket_1: 401743
Critical_ROB_Stalls_Percent_2_Bucket_2: 220698
Non-critical_ROB_Stalls_Percent_2_Bucket_2: 256939
Critical_ROB_Stalls_Percent_2_Bucket_3: 224382
Non-critical_ROB_Stalls_Percent_2_Bucket_3: 101358
Critical_ROB_Stalls_Percent_2_Bucket_4: 137994
Non-critical_ROB_Stalls_Percent_2_Bucket_4: 47174
Critical_ROB_Stalls_Percent_2_Bucket_5: 129521
Non-critical_ROB_Stalls_Percent_2_Bucket_5: 37121
Critical_ROB_Stalls_Percent_2_Bucket_6: 902585
Non-critical_ROB_Stalls_Percent_2_Bucket_6: 107405
Critical_ROB_Stalls_Percent_3_Bucket_0: 174830
Non-critical_ROB_Stalls_Percent_3_Bucket_0: 292451
Critical_ROB_Stalls_Percent_3_Bucket_1: 231341
Non-critical_ROB_Stalls_Percent_3_Bucket_1: 362786
Critical_ROB_Stalls_Percent_3_Bucket_2: 252823
Non-critical_ROB_Stalls_Percent_3_Bucket_2: 224814
Critical_ROB_Stalls_Percent_3_Bucket_3: 231200
Non-critical_ROB_Stalls_Percent_3_Bucket_3: 94540
Critical_ROB_Stalls_Percent_3_Bucket_4: 143777
Non-critical_ROB_Stalls_Percent_3_Bucket_4: 41391
Critical_ROB_Stalls_Percent_3_Bucket_5: 137619
Non-critical_ROB_Stalls_Percent_3_Bucket_5: 29023
Critical_ROB_Stalls_Percent_3_Bucket_6: 926187
Non-critical_ROB_Stalls_Percent_3_Bucket_6: 83803
Critical_ROB_Stalls_Percent_4_Bucket_0: 216168
Non-critical_ROB_Stalls_Percent_4_Bucket_0: 251113
Critical_ROB_Stalls_Percent_4_Bucket_1: 279464
Non-critical_ROB_Stalls_Percent_4_Bucket_1: 314663
Critical_ROB_Stalls_Percent_4_Bucket_2: 283252
Non-critical_ROB_Stalls_Percent_4_Bucket_2: 194385
Critical_ROB_Stalls_Percent_4_Bucket_3: 241045
Non-critical_ROB_Stalls_Percent_4_Bucket_3: 84695
Critical_ROB_Stalls_Percent_4_Bucket_4: 148265
Non-critical_ROB_Stalls_Percent_4_Bucket_4: 36903
Critical_ROB_Stalls_Percent_4_Bucket_5: 145060
Non-critical_ROB_Stalls_Percent_4_Bucket_5: 21582
Critical_ROB_Stalls_Percent_4_Bucket_6: 947433
Non-critical_ROB_Stalls_Percent_4_Bucket_6: 62557
Critical_ROB_Stalls_Percent_5_Bucket_0: 234419
Non-critical_ROB_Stalls_Percent_5_Bucket_0: 232862
Critical_ROB_Stalls_Percent_5_Bucket_1: 341937
Non-critical_ROB_Stalls_Percent_5_Bucket_1: 252190
Critical_ROB_Stalls_Percent_5_Bucket_2: 315466
Non-critical_ROB_Stalls_Percent_5_Bucket_2: 162171
Critical_ROB_Stalls_Percent_5_Bucket_3: 262187
Non-critical_ROB_Stalls_Percent_5_Bucket_3: 63553
Critical_ROB_Stalls_Percent_5_Bucket_4: 162801
Non-critical_ROB_Stalls_Percent_5_Bucket_4: 22367
Critical_ROB_Stalls_Percent_5_Bucket_5: 150219
Non-critical_ROB_Stalls_Percent_5_Bucket_5: 16423
Critical_ROB_Stalls_Percent_5_Bucket_6: 954534
Non-critical_ROB_Stalls_Percent_5_Bucket_6: 55456
Critical_ROB_Stalls_Percent_6_Bucket_0: 276177
Non-critical_ROB_Stalls_Percent_6_Bucket_0: 191104
Critical_ROB_Stalls_Percent_6_Bucket_1: 398786
Non-critical_ROB_Stalls_Percent_6_Bucket_1: 195341
Critical_ROB_Stalls_Percent_6_Bucket_2: 358357
Non-critical_ROB_Stalls_Percent_6_Bucket_2: 119280
Critical_ROB_Stalls_Percent_6_Bucket_3: 271877
Non-critical_ROB_Stalls_Percent_6_Bucket_3: 53863
Critical_ROB_Stalls_Percent_6_Bucket_4: 165979
Non-critical_ROB_Stalls_Percent_6_Bucket_4: 19189
Critical_ROB_Stalls_Percent_6_Bucket_5: 151298
Non-critical_ROB_Stalls_Percent_6_Bucket_5: 15344
Critical_ROB_Stalls_Percent_6_Bucket_6: 959560
Non-critical_ROB_Stalls_Percent_6_Bucket_6: 50430
Critical_ROB_Stalls_Percent_7_Bucket_0: 312278
Non-critical_ROB_Stalls_Percent_7_Bucket_0: 155003
Critical_ROB_Stalls_Percent_7_Bucket_1: 444635
Non-critical_ROB_Stalls_Percent_7_Bucket_1: 149492
Critical_ROB_Stalls_Percent_7_Bucket_2: 401273
Non-critical_ROB_Stalls_Percent_7_Bucket_2: 76364
Critical_ROB_Stalls_Percent_7_Bucket_3: 292257
Non-critical_ROB_Stalls_Percent_7_Bucket_3: 33483
Critical_ROB_Stalls_Percent_7_Bucket_4: 172285
Non-critical_ROB_Stalls_Percent_7_Bucket_4: 12883
Critical_ROB_Stalls_Percent_7_Bucket_5: 154209
Non-critical_ROB_Stalls_Percent_7_Bucket_5: 12433
Critical_ROB_Stalls_Percent_7_Bucket_6: 966819
Non-critical_ROB_Stalls_Percent_7_Bucket_6: 43171
Critical_ROB_Stalls_Percent_8_Bucket_0: 362735
Non-critical_ROB_Stalls_Percent_8_Bucket_0: 104546
Critical_ROB_Stalls_Percent_8_Bucket_1: 500066
Non-critical_ROB_Stalls_Percent_8_Bucket_1: 94061
Critical_ROB_Stalls_Percent_8_Bucket_2: 427311
Non-critical_ROB_Stalls_Percent_8_Bucket_2: 50326
Critical_ROB_Stalls_Percent_8_Bucket_3: 300395
Non-critical_ROB_Stalls_Percent_8_Bucket_3: 25345
Critical_ROB_Stalls_Percent_8_Bucket_4: 175639
Non-critical_ROB_Stalls_Percent_8_Bucket_4: 9529
Critical_ROB_Stalls_Percent_8_Bucket_5: 157342
Non-critical_ROB_Stalls_Percent_8_Bucket_5: 9300
Critical_ROB_Stalls_Percent_8_Bucket_6: 981660
Non-critical_ROB_Stalls_Percent_8_Bucket_6: 28330
Average ROB occupancy Load Stall Begin: 180.985
Average ROB occupancy Load Stall End: 190.065
Min ROB occupancy Load Stall Begin: 1
Max ROB occupancy Load Stall Begin: 352
Min ROB occupancy Load Stall End: 1
Max ROB occupancy Load Stall End: 352
Average ROB occupancy Critical Load Stall Begin: -nan
Average ROB occupancy Critical Load Stall End: -nan
Min ROB occupancy Critical Load Stall Begin: 400
Max ROB occupancy Critical Load Stall Begin: 0
Min ROB occupancy Critical Load Stall End: 400
Max ROB occupancy Critical Load Stall End: 0
 ROB Load Stall Begin Bucket Count 0: 661393
 ROB Load Stall End Bucket Count 0: 467281
 ROB Critical Load Stall Begin Bucket Count 0: 0
 ROB Critical Load Stall End Bucket Count 0: 0
 ROB Load Stall Begin Bucket Count 1: 544345
 ROB Load Stall End Bucket Count 1: 594127
 ROB Critical Load Stall Begin Bucket Count 1: 0
 ROB Critical Load Stall End Bucket Count 1: 0
 ROB Load Stall Begin Bucket Count 2: 435247
 ROB Load Stall End Bucket Count 2: 477637
 ROB Critical Load Stall Begin Bucket Count 2: 0
 ROB Critical Load Stall End Bucket Count 2: 0
 ROB Load Stall Begin Bucket Count 3: 272303
 ROB Load Stall End Bucket Count 3: 325740
 ROB Critical Load Stall Begin Bucket Count 3: 0
 ROB Critical Load Stall End Bucket Count 3: 0
 ROB Load Stall Begin Bucket Count 4: 171691
 ROB Load Stall End Bucket Count 4: 185168
 ROB Critical Load Stall Begin Bucket Count 4: 0
 ROB Critical Load Stall End Bucket Count 4: 0
 ROB Load Stall Begin Bucket Count 5: 162038
 ROB Load Stall End Bucket Count 5: 166642
 ROB Critical Load Stall Begin Bucket Count 5: 0
 ROB Critical Load Stall End Bucket Count 5: 0
 ROB Load Stall Begin Bucket Count 6: 979568
 ROB Load Stall End Bucket Count 6: 1009990
 ROB Critical Load Stall Begin Bucket Count 6: 0
 ROB Critical Load Stall End Bucket Count 6: 0
PIST Tag Read Accesses: 2574236
PIST Read Accesses: 1287118
PIST Tag Write Accesses: 2574236
PIST Write Accesses: 1287118
Criticality detector called times: 1619273
Max global_stall_cycles_count: 3933567
Threshold Modified: 1 times, factor: -1
Sturdy critical IP cache stats: 
 Unused entries: 0
CIC Tag Read Accesses: 0
CIC Read Accesses: 0
CIC Tag Write Accesses: 0
CIC Write Accesses: 0
Wobbly critical IP cache stats: 
 Unused entries: 109
CIC Tag Read Accesses: 89288474
CIC Read Accesses: 0
CIC Tag Write Accesses: 72578
CIC Write Accesses: 0
ITLB TOTAL     ACCESS:   10018596  HIT:    9577982  MISS:     440614  HIT %:     95.602  MISS %:    4.39796   MPKI: 8.81228
ITLB LOAD TRANSLATION ACCESS:    8290800  HIT:    8278126  MISS:      12674  HIT %:    99.8471  MISS %:   0.152868   MPKI: 0.25348
ITLB TRANSLATION FROM L1D PREFETCHER ACCESS:    1727796  HIT:    1299856  MISS:     427940  HIT %:     75.232  MISS %:     24.768   MPKI: 8.5588
ITLB PREFETCH  REQUESTED:          0  ISSUED:          0  USEFUL:     377608  USELESS:      50327
ITLB USEFUL LOAD PREFETCHES:     377608 PREFETCH ISSUED TO LOWER LEVEL:          0  ACCURACY: inf
ITLB TIMELY PREFETCHES:     377608 LATE PREFETCHES: 306 DROPPED PREFETCHES: 91
ITLB PREFETCHES SAME FILL-ORIGIN LEVEL: 0 DIFFERENT FILL-ORIGIN LEVEL: 0
ITLB AVERAGE MISS LATENCY: 44447.8 cycles
ITLB RQ	ACCESS:   14194065	FORWARD:          0	MERGED:    4125432	TO_CACHE:   10068633

DTLB TOTAL     ACCESS:   10624412  HIT:   10184407  MISS:     440005  HIT %:    95.8585  MISS %:    4.14145   MPKI: 8.8001
DTLB LOAD TRANSLATION ACCESS:   10624412  HIT:   10184407  MISS:     440005  HIT %:    95.8585  MISS %:    4.14145   MPKI: 8.8001
DTLB PREFETCH  REQUESTED:          0  ISSUED:          0  USEFUL:          0  USELESS:          0
DTLB USEFUL LOAD PREFETCHES:          0 PREFETCH ISSUED TO LOWER LEVEL:          0  ACCURACY: -nan
DTLB TIMELY PREFETCHES:          0 LATE PREFETCHES: 0 DROPPED PREFETCHES: 0
DTLB PREFETCHES SAME FILL-ORIGIN LEVEL: 0 DIFFERENT FILL-ORIGIN LEVEL: 0
DTLB AVERAGE MISS LATENCY: 24.7 cycles
DTLB RQ	ACCESS:   15436484	FORWARD:          0	MERGED:    4734574	TO_CACHE:   10701910

STLB TOTAL     ACCESS:    1481844  HIT:    1418461  MISS:      63383  HIT %:    95.7227  MISS %:    4.27731   MPKI: 1.26766
STLB LOAD TRANSLATION ACCESS:     452373  HIT:     389950  MISS:      62423  HIT %:     86.201  MISS %:     13.799   MPKI: 1.24846
STLB TRANSLATION FROM L1D PREFETCHER ACCESS:    1029471  HIT:    1028511  MISS:        960  HIT %:    99.9067  MISS %:  0.0932518   MPKI: 0.0192
STLB PREFETCH  REQUESTED:          0  ISSUED:          0  USEFUL:        711  USELESS:        250
STLB USEFUL LOAD PREFETCHES:        711 PREFETCH ISSUED TO LOWER LEVEL:          0  ACCURACY: inf
STLB TIMELY PREFETCHES:        711 LATE PREFETCHES: 0 DROPPED PREFETCHES: 91
STLB PREFETCHES SAME FILL-ORIGIN LEVEL: 0 DIFFERENT FILL-ORIGIN LEVEL: 0
STLB AVERAGE MISS LATENCY: 113.552 cycles
STLB RQ	ACCESS:    1523595	FORWARD:          0	MERGED:      41660	TO_CACHE:    1481935

STLB Hit, L1D data hit: 0
STLB Hit, L2C data hit: 0
STLB Hit, LLC data hit: 0
STLB Hit, LLC data miss: 0
STLB STLB hints to L2: 0
L1D TOTAL     ACCESS:   13849259  HIT:   12035080  MISS:    1814179  HIT %:    86.9005  MISS %:    13.0995   MPKI: 36.2836
L1D LOAD      ACCESS:    7323231  HIT:    6692517  MISS:     630714  HIT %:    91.3875  MISS %:    8.61251   MPKI: 12.6143
L1D RFO       ACCESS:    5963166  HIT:    5090851  MISS:     872315  HIT %:    85.3716  MISS %:    14.6284   MPKI: 17.4463
L1D PREFETCH  ACCESS:     562862  HIT:     251712  MISS:     311150  HIT %:      44.72  MISS %:      55.28   MPKI: 6.223
L1D PREFETCH  REQUESTED:    1285770  ISSUED:    1285770  USEFUL:     236907  USELESS:      74241
L1D USEFUL LOAD PREFETCHES:     236907 PREFETCH ISSUED TO LOWER LEVEL:     379545  ACCURACY: 62.4187
L1D TIMELY PREFETCHES:     236907 LATE PREFETCHES: 68390 DROPPED PREFETCHES: 0
L1D PREFETCHES SAME FILL-ORIGIN LEVEL: 379545 DIFFERENT FILL-ORIGIN LEVEL: 0
L1D AVERAGE MISS LATENCY: 2.44727e+06 cycles
L1D RQ	ACCESS:   10778995	FORWARD:          0	MERGED:    3309377	TO_CACHE:    7359825
L1D WQ	ACCESS:    8175288	FORWARD:     109793	MERGED:      98629	TO_CACHE:    8076659
L1D PQ	ACCESS:     642885	FORWARD:          0	MERGED:          0	TO_CACHE:     642885

L1D UNIQUE REGIONS ACCESSED: 0
L1D REGIONS CONFLICTS: 0
L1D Cross Page Prefetch Requests: 0
L1D Same Page Prefetch Requests: 1315194
L1D ROI Sum of L1D PQ occupancy: 9458520
L1D PREFETCHES PUSHED FROM L2C: 0
L1I TOTAL     ACCESS:   14121761  HIT:   11259637  MISS:    2862124  HIT %:    79.7325  MISS %:    20.2675   MPKI: 57.2425
L1I LOAD      ACCESS:    9655660  HIT:    9633950  MISS:      21710  HIT %:    99.7752  MISS %:   0.224842   MPKI: 0.4342
L1I PREFETCH  ACCESS:    4466101  HIT:    1625687  MISS:    2840414  HIT %:    36.4006  MISS %:    63.5994   MPKI: 56.8083
L1I PREFETCH  REQUESTED:    4678480  ISSUED:    4667908  USEFUL:    2363445  USELESS:     476946
L1I USEFUL LOAD PREFETCHES:    2363445 PREFETCH ISSUED TO LOWER LEVEL:    2848933  ACCURACY: 82.959
L1I TIMELY PREFETCHES:    2363445 LATE PREFETCHES: 8519 DROPPED PREFETCHES: 155
L1I PREFETCHES SAME FILL-ORIGIN LEVEL: 2848933 DIFFERENT FILL-ORIGIN LEVEL: 0
L1I AVERAGE MISS LATENCY: 237497 cycles
L1I RQ	ACCESS:   13980441	FORWARD:          0	MERGED:    4319107	TO_CACHE:    9661334
L1I PQ	ACCESS:    4667908	FORWARD:          0	MERGED:     135177	TO_CACHE:    4532731

BTB TOTAL     ACCESS:    5420736  HIT:    5179353  MISS:     241383  HIT %:     95.547  MISS %:    4.45296   MPKI: 4.82766
BTB BRANCH_DIRECT_JUMP	ACCESS:     464500  HIT:     462787  MISS:       1713
BTB BRANCH_INDIRECT	ACCESS:      45704  HIT:      45540  MISS:        164
BTB BRANCH_CONDITIONAL	ACCESS:    3156565  HIT:    3151071  MISS:       5494
BTB BRANCH_DIRECT_CALL	ACCESS:     675450  HIT:     671839  MISS:       3611
BTB BRANCH_INDIRECT_CALL	ACCESS:     201532  HIT:     175397  MISS:      26135
BTB BRANCH_RETURN	ACCESS:     876985  HIT:     672719  MISS:     204266
BTB BRANCH_OTHER ACCESS:          0  HIT:          0  MISS:          0

L2C TOTAL     ACCESS:    5876104  HIT:    4073548  MISS:    1802556  HIT %:     69.324  MISS %:     30.676   MPKI: 36.0511
L2C LOAD      ACCESS:     575505  HIT:     158284  MISS:     417221  HIT %:    27.5035  MISS %:    72.4965   MPKI: 8.34442
L2C DATA LOAD MPKI: 8.23968
L2C INSTRUCTION LOAD MPKI: 0.10474
L2C RFO       ACCESS:     872312  HIT:      35729  MISS:     836583  HIT %:     4.0959  MISS %:    95.9041   MPKI: 16.7317
L2C PREFETCH  ACCESS:    3228475  HIT:    2752979  MISS:     475496  HIT %:    85.2718  MISS %:    14.7282   MPKI: 9.50992
L2C DATA PREFETCH MPKI: 6.8673
L2C INSTRUCTION PREFETCH MPKI: 2.64262
L2C WRITEBACK ACCESS:    1110993  HIT:    1068848  MISS:      42145  HIT %:    96.2065  MISS %:    3.79345   MPKI: 0.8429
L2C LOAD TRANSLATION ACCESS:      87252  HIT:      57103  MISS:      30149  HIT %:    65.4461  MISS %:    34.5539   MPKI: 0.60298
L2C TRANSLATION FROM L1D PREFETCHER ACCESS:       1567  HIT:        605  MISS:        962  HIT %:    38.6088  MISS %:    61.3912   MPKI: 0.01924
L2C PREFETCH  REQUESTED:          0  ISSUED:          0  USEFUL:       3564  USELESS:     473348
L2C USEFUL LOAD PREFETCHES:       3564 PREFETCH ISSUED TO LOWER LEVEL:     475499  ACCURACY: 0.749528
L2C TIMELY PREFETCHES:       3564 LATE PREFETCHES: 0 DROPPED PREFETCHES: 0
L2C PREFETCHES SAME FILL-ORIGIN LEVEL: 0 DIFFERENT FILL-ORIGIN LEVEL: 0
L2C AVERAGE MISS LATENCY: 170.7 cycles
L2C RQ	ACCESS:    1536648	FORWARD:          0	MERGED:          0	TO_CACHE:    1536637
L2C WQ	ACCESS:    1110993	FORWARD:         11	MERGED:          0	TO_CACHE:    1110993
L2C PQ	ACCESS:    3228478	FORWARD:          0	MERGED:          0	TO_CACHE:    3228478

L2C Instructions Evicting Data 123821
L2C Translations Evicting Data 27817
L2C Data Evicting Data 1443490
L2C Instructions Evicting Instructions 10902
L2C Translations Evicting Instructions 2841
L2C Data Evicting Instructions 121062
L2C Instructions Evicting Translations 2645
L2C Translations Evicting Translations 453
L2C Data Evicting Translations 27380
L2C Dense regions hint from L2: 0
PSCL5 TOTAL     ACCESS:      63474  HIT:      63474  MISS:          0  HIT %:        100  MISS %:          0   MPKI: 0
PSCL5 LOAD TRANSLATION ACCESS:      62423  HIT:      62423  MISS:          0  HIT %:        100  MISS %:          0   MPKI: 0
PSCL5 TRANSLATION FROM L1D PREFETCHER ACCESS:       1051  HIT:       1051  MISS:          0  HIT %:        100  MISS %:          0   MPKI: 0
PSCL5 PREFETCH  REQUESTED:          0  ISSUED:          0  USEFUL:          0  USELESS:          0
PSCL5 USEFUL LOAD PREFETCHES:          0 PREFETCH ISSUED TO LOWER LEVEL:          0  ACCURACY: -nan
PSCL5 TIMELY PREFETCHES:          0 LATE PREFETCHES: 0 DROPPED PREFETCHES: 0
PSCL5 PREFETCHES SAME FILL-ORIGIN LEVEL: 0 DIFFERENT FILL-ORIGIN LEVEL: 0

PSCL4 TOTAL     ACCESS:      35665  HIT:      35545  MISS:        120  HIT %:    99.6635  MISS %:   0.336464   MPKI: 0.0024
PSCL4 LOAD TRANSLATION ACCESS:      34767  HIT:      34647  MISS:        120  HIT %:    99.6548  MISS %:   0.345155   MPKI: 0.0024
PSCL4 TRANSLATION FROM L1D PREFETCHER ACCESS:        898  HIT:        898  MISS:          0  HIT %:        100  MISS %:          0   MPKI: 0
PSCL4 PREFETCH  REQUESTED:          0  ISSUED:          0  USEFUL:          0  USELESS:          0
PSCL4 USEFUL LOAD PREFETCHES:          0 PREFETCH ISSUED TO LOWER LEVEL:          0  ACCURACY: -nan
PSCL4 TIMELY PREFETCHES:          0 LATE PREFETCHES: 0 DROPPED PREFETCHES: 0
PSCL4 PREFETCHES SAME FILL-ORIGIN LEVEL: 0 DIFFERENT FILL-ORIGIN LEVEL: 0

PSCL3 TOTAL     ACCESS:      63236  HIT:      62753  MISS:        483  HIT %:    99.2362  MISS %:   0.763805   MPKI: 0.00966
PSCL3 LOAD TRANSLATION ACCESS:      62312  HIT:      61829  MISS:        483  HIT %:    99.2249  MISS %:   0.775132   MPKI: 0.00966
PSCL3 TRANSLATION FROM L1D PREFETCHER ACCESS:        924  HIT:        924  MISS:          0  HIT %:        100  MISS %:          0   MPKI: 0
PSCL3 PREFETCH  REQUESTED:          0  ISSUED:          0  USEFUL:          0  USELESS:          0
PSCL3 USEFUL LOAD PREFETCHES:          0 PREFETCH ISSUED TO LOWER LEVEL:          0  ACCURACY: -nan
PSCL3 TIMELY PREFETCHES:          0 LATE PREFETCHES: 0 DROPPED PREFETCHES: 0
PSCL3 PREFETCHES SAME FILL-ORIGIN LEVEL: 0 DIFFERENT FILL-ORIGIN LEVEL: 0

PSCL2 TOTAL     ACCESS:      63389  HIT:      38693  MISS:      24696  HIT %:    61.0406  MISS %:    38.9594   MPKI: 0.49392
PSCL2 LOAD TRANSLATION ACCESS:      62737  HIT:      38041  MISS:      24696  HIT %:    60.6357  MISS %:    39.3643   MPKI: 0.49392
PSCL2 TRANSLATION FROM L1D PREFETCHER ACCESS:        652  HIT:        652  MISS:          0  HIT %:        100  MISS %:          0   MPKI: 0
PSCL2 PREFETCH  REQUESTED:          0  ISSUED:          0  USEFUL:          0  USELESS:          0
PSCL2 USEFUL LOAD PREFETCHES:          0 PREFETCH ISSUED TO LOWER LEVEL:          0  ACCURACY: -nan
PSCL2 TIMELY PREFETCHES:          0 LATE PREFETCHES: 0 DROPPED PREFETCHES: 0
PSCL2 PREFETCHES SAME FILL-ORIGIN LEVEL: 0 DIFFERENT FILL-ORIGIN LEVEL: 0

LLC TOTAL     ACCESS:    2797478  HIT:     955548  MISS:    1841930  HIT %:    34.1575  MISS %:    65.8425   MPKI: 36.8386
LLC LOAD      ACCESS:     417221  HIT:     241697  MISS:     175524  HIT %:    57.9302  MISS %:    42.0698   MPKI: 3.51048
LLC RFO       ACCESS:     836582  HIT:     219412  MISS:     617170  HIT %:    26.2272  MISS %:    73.7728   MPKI: 12.3434
LLC PREFETCH  ACCESS:     475497  HIT:     123244  MISS:     352253  HIT %:     25.919  MISS %:     74.081   MPKI: 7.04506
LLC WRITEBACK ACCESS:    1037067  HIT:     358118  MISS:     678949  HIT %:    34.5318  MISS %:    65.4682   MPKI: 13.579
LLC LOAD TRANSLATION ACCESS:      30149  HIT:      12708  MISS:      17441  HIT %:    42.1507  MISS %:    57.8493   MPKI: 0.34882
LLC TRANSLATION FROM L1D PREFETCHER ACCESS:        962  HIT:        369  MISS:        593  HIT %:    38.3576  MISS %:    61.6424   MPKI: 0.01186
LLC PREFETCH  REQUESTED:          0  ISSUED:          0  USEFUL:        547  USELESS:     352237
LLC USEFUL LOAD PREFETCHES:        547 PREFETCH ISSUED TO LOWER LEVEL:     352255  ACCURACY: 0.155285
LLC TIMELY PREFETCHES:        547 LATE PREFETCHES: 0 DROPPED PREFETCHES: 0
LLC PREFETCHES SAME FILL-ORIGIN LEVEL: 0 DIFFERENT FILL-ORIGIN LEVEL: 0
LLC AVERAGE MISS LATENCY: 137.151 cycles
LLC RQ	ACCESS:    1284916	FORWARD:          0	MERGED:          0	TO_CACHE:    1284915
LLC WQ	ACCESS:    1037067	FORWARD:          1	MERGED:          0	TO_CACHE:    1037067
LLC PQ	ACCESS:     475499	FORWARD:          0	MERGED:          0	TO_CACHE:     475499

LLC Dense regions hint to LLC: 0

RAW hits: 1309606
Loads Generated: 12088598
Loads sent to L1D: 10778995
Stores Generated: 8175295
Stores sent to L1D: 8175288
Major fault: 0 Minor fault: 24906
Allocated PAGES: 24906
I-Shadow cache 408 bytes
Touched + WorthPF tables 6144 bytes 
MMA filter 174 bytes 
FNL filter 272 bytes 
TOTAL PREFETCHER STORAGE SIZE: 25174 bytes
CPU 0 L1I next line prefetcher final stats

stream: 
stream:times selected: 3674811
stream:pref_filled: 124238
stream:pref_useful: 32175
stream:pref_late: 8899
stream:misses: 33000
stream:misses_by_poll: 0

CS: 
CS:times selected: 3187825
CS:pref_filled: 545519
CS:pref_useful: 524541
CS:pref_late: 59803
CS:misses: 71914
CS:misses_by_poll: 374

CPLX: 
CPLX:times selected: 478011
CPLX:pref_filled: 20010
CPLX:pref_useful: 1476
CPLX:pref_late: 320
CPLX:misses: 93732
CPLX:misses_by_poll: 6

NL_L1: 
NL:times selected: 2812
NL:pref_filled: 771
NL:pref_useful: 26
NL:pref_late: 12
NL:misses: 1029
NL:misses_by_poll: 1

total selections: 7343459
total_filled: 311150
total_useful: 236907
total_late: 71321
total_polluted: 381
total_misses_after_warmup: 667309
conflicts: 2364361
Degree Incremented Times: 75360
Degree Decremented Times: 89151

L1 IP Table Write Accesses: 4811018
L1 IP Table Read Accesses: 2446657
L1 RST Write Accesses: 1836157
L1 RST Read Accesses: 3672314
L1 CSPT Write Accesses: 1836157
L1 CSPT Read Accesses: 2146897
L1 RR Filter Tag Write Accesses: 642885
L1 RR Filter Tag Read Accesses: 189803949
L1 IP Table Tag Write Accesses: 7359826
L1 IP Table Tag Read Accesses: 7359826
L1 RST Tag Write Accesses: 0
L1 RST Tag Read Accesses: 16830097
L1 RR Filter Write Accesses: 0
L1 RR Filter Read Accesses: 6158239
test: 290118

DRAM Statistics
 CHANNEL 0
 RQ ROW_BUFFER_HIT:     415703  ROW_BUFFER_MISS:     747185
 DBUS_CONGESTED:        515
 WQ ROW_BUFFER_HIT:     185333  ROW_BUFFER_MISS:     528774  FULL:      14023

 AVG_CONGESTED_CYCLE: 2
 All warmup complete: 2
Channel 0 Bank busy for read cycles: 0
Channel 0 Bank busy for write cycles: 0
Channel 0
Rank 0
0banks busy for read cycles: 23210781
0banks busy for write cycles: 54110
1banks busy for read cycles: 20437993
1banks busy for write cycles: 8429041
2banks busy for read cycles: 16252652
2banks busy for write cycles: 4672446
3banks busy for read cycles: 6795777
3banks busy for write cycles: 3074737
4banks busy for read cycles: 4123752
4banks busy for write cycles: 2328147
5banks busy for read cycles: 771182
5banks busy for write cycles: 1884451
6banks busy for read cycles: 580147
6banks busy for write cycles: 1512046
7banks busy for read cycles: 864815
7banks busy for write cycles: 1880142
8banks busy for read cycles: 3927113
8banks busy for write cycles: 8849351

CPU 0 Branch Prediction Accuracy: 99.2833% MPKI: 1.20566 Average ROB Occupancy at Mispredict: 136.659
Branch types
NOT_BRANCH: 41588315 83.1766%
BRANCH_DIRECT_JUMP: 464500 0.929%
BRANCH_INDIRECT: 45704 0.091408%
BRANCH_CONDITIONAL: 6147405 12.2948%
BRANCH_DIRECT_CALL: 675450 1.3509%
BRANCH_INDIRECT_CALL: 201532 0.403064%
BRANCH_RETURN: 876985 1.75397%
BRANCH_OTHER: 0 0%

DRAM PAGES: 1048576
Allocated PAGES: 24906
