
*** ChampSim Multicore Out-of-Order Simulator ***

Warmup Instructions: 50000000
Simulation Instructions: 50000000
Number of CPUs: 1
LLC sets: 2048
LLC ways: 16
Off-chip DRAM Size: 4096 MB Channels: 1 Width: 64-bit Data Rate: 6400 MT/s
CPU 0 runs ../IPC-traces//server_010.champsimtrace.xz
.xz
BTB has LRU replacement policy
ITLB has LRU replacement policy
DTLB has LRU replacement policy
STLB has LRU replacement policy
CPU 0 L1I next line prefetcher
L1I has LRU replacement policy
IP Table Entries: 64
L1D has LRU replacement policy
Initialize SRRIP state for L2C
Initialize DRRIP state for LLC
Heartbeat CPU 0 instructions: 10000001 cycles: 2762450 heartbeat IPC: 3.61998 cumulative IPC: 3.61998 (Simulation time: 0 hr 2 min 31 sec) 
Heartbeat CPU 0 instructions: 20000003 cycles: 5516861 heartbeat IPC: 3.63054 cumulative IPC: 3.62525 (Simulation time: 0 hr 5 min 2 sec) 
Heartbeat CPU 0 instructions: 30000001 cycles: 8270095 heartbeat IPC: 3.63209 cumulative IPC: 3.62753 (Simulation time: 0 hr 7 min 31 sec) 
Heartbeat CPU 0 instructions: 40000000 cycles: 11024186 heartbeat IPC: 3.63096 cumulative IPC: 3.62839 (Simulation time: 0 hr 10 min 1 sec) 
Heartbeat CPU 0 instructions: 50000003 cycles: 13779769 heartbeat IPC: 3.629 cumulative IPC: 3.62851 (Simulation time: 0 hr 12 min 25 sec) 

Warmup complete CPU 0 instructions: 50000003 cycles: 13779769 (Simulation time: 0 hr 12 min 25 sec) 

Heartbeat CPU 0 instructions: 60000001 cycles: 27899182 heartbeat IPC: 0.708245 cumulative IPC: 0.708245 (Simulation time: 0 hr 15 min 36 sec) 
Heartbeat CPU 0 instructions: 70000000 cycles: 42029549 heartbeat IPC: 0.707696 cumulative IPC: 0.70797 (Simulation time: 0 hr 18 min 40 sec) 
Heartbeat CPU 0 instructions: 80000003 cycles: 56186007 heartbeat IPC: 0.706392 cumulative IPC: 0.707443 (Simulation time: 0 hr 21 min 41 sec) 
Heartbeat CPU 0 instructions: 90000002 cycles: 70110982 heartbeat IPC: 0.718134 cumulative IPC: 0.710086 (Simulation time: 0 hr 24 min 44 sec) 
Heartbeat CPU 0 instructions: 100000000 cycles: 97765477 heartbeat IPC: 0.361605 cumulative IPC: 0.595339 (Simulation time: 0 hr 29 min 51 sec) 
Finished CPU 0 instructions: 50000001 cycles: 83985729 cumulative IPC: 0.595339 (Simulation time: 0 hr 29 min 51 sec) 

ChampSim completed all CPUs

Region of Interest Statistics

CPU 0 cumulative IPC: 0.595339 instructions: 50000001 cycles: 83985729

CPU 0 Average Load ROB stall cycles: 2.80236e+07
CPU 0 Fraction of times ROB stalled by Loads: 47.3885
CPU 0 Percentage of Load stall cycles in Total stall cycles: 2.87959e+08
Issued all: 34003582
Issued LT all: 28221740
rob_not_full_when_issued_lt_all: 20898182
Issued LT one: 22952297
rob_not_full_when_issued_lt_one: 16136316
HPCA_2009 critical_dynamic_instances_0: 21557
HPCA_2009 unique_critical_ips_0: 6372
multiple_destinations_0: 0
load_to_same_dest_0: 0
low_issue_rate_0: 15487581
total_issue_rate_checked_count_0: 16566567
 Total stall cycles: 70511057
 Total load stall cycles: 203042603916847
Unique Load IPs: 31458
CPU 0 NUM of IPS identified critical: 0
CPU 0 Num of Load IPs stalling ROB: 0
Threshold modification factor: 0
Trouble in retire width: -nan
MaC = Marked as critical.
lt_50_percent_before_Mac: 0
gt_90_percent_before_Mac: 0
gt_75_percent_before_Mac: 0
gt_50_percent_before_Mac: 0
stall_proportion_bin_same_before_after: 0
stall_proportion_bin_lower_before_after: 0
stall_proportion_bin_upper_before_after: 0
average_stall_proportion_before: -nan
average_stall_proportion_after: -nan
Critical IP stalls, total frequency: 0
Non-critical IP stalls, total frequency: 0
Total Freq all stalling IPs: 0
Critical_IP_Detector_Accuracy_70: 0
Critical_IP_Detector_Accuracy_80: 0
Critical_IP_Detector_Accuracy_90: 0
Critical_IP_Detector_Coverage_70: 0
Critical_IP_Detector_Coverage_80: 0
Critical_IP_Detector_Coverage_90: 0
stat_90_percent_critical_ip_stalls_freq: 512010
stat_90_percent_non_critical_ip_stalls_freq: 18446744073709039606
AVERAGE_ROB_Occupancy_90_Percent_Critical_IP_Stalls: 267.807
AVERAGE_ROB_Occupancy_90_Percent_Non_Critical_IP_Stalls: 1.63022e-11
Critical_IP_ROB_Stalls_Bucket_0: 0
Non-critical_IP_ROB_Stalls_Bucket_0: 1203203
Critical_IP_ROB_Stalls_Bucket_1: 0
Non-critical_IP_ROB_Stalls_Bucket_1: 776069
Critical_IP_ROB_Stalls_Bucket_2: 0
Non-critical_IP_ROB_Stalls_Bucket_2: 369478
Critical_IP_ROB_Stalls_Bucket_3: 0
Non-critical_IP_ROB_Stalls_Bucket_3: 223815
Critical_IP_ROB_Stalls_Bucket_4: 0
Non-critical_IP_ROB_Stalls_Bucket_4: 175040
Critical_IP_ROB_Stalls_Bucket_5: 0
Non-critical_IP_ROB_Stalls_Bucket_5: 164689
Critical_IP_ROB_Stalls_Bucket_6: 0
Non-critical_IP_ROB_Stalls_Bucket_6: 521194
0 => IPs accounting for >50 percent of stalls, 1 => 55, 2 => 60, 3 => 65 and so on till 90.
percent50: inf num IPs:  1
percent55: inf num IPs: 1
percent60: inf num IPs: 1
percent65: inf num IPs: 1
percent70: inf num IPs: 1
percent75: inf num IPs: 1
percent80: inf num IPs: 1
percent85: inf num IPs: 1
percent90: inf num IPs: 1
Critical_ROB_Stalls_Percent_0_Bucket_0: 51
Non-critical_ROB_Stalls_Percent_0_Bucket_0: 1203152
Critical_ROB_Stalls_Percent_0_Bucket_1: 9501
Non-critical_ROB_Stalls_Percent_0_Bucket_1: 766568
Critical_ROB_Stalls_Percent_0_Bucket_2: 57514
Non-critical_ROB_Stalls_Percent_0_Bucket_2: 311964
Critical_ROB_Stalls_Percent_0_Bucket_3: 68207
Non-critical_ROB_Stalls_Percent_0_Bucket_3: 155608
Critical_ROB_Stalls_Percent_0_Bucket_4: 67283
Non-critical_ROB_Stalls_Percent_0_Bucket_4: 107757
Critical_ROB_Stalls_Percent_0_Bucket_5: 70655
Non-critical_ROB_Stalls_Percent_0_Bucket_5: 94034
Critical_ROB_Stalls_Percent_0_Bucket_6: 238799
Non-critical_ROB_Stalls_Percent_0_Bucket_6: 282395
Critical_ROB_Stalls_Percent_1_Bucket_0: 51
Non-critical_ROB_Stalls_Percent_1_Bucket_0: 1203152
Critical_ROB_Stalls_Percent_1_Bucket_1: 9501
Non-critical_ROB_Stalls_Percent_1_Bucket_1: 766568
Critical_ROB_Stalls_Percent_1_Bucket_2: 57514
Non-critical_ROB_Stalls_Percent_1_Bucket_2: 311964
Critical_ROB_Stalls_Percent_1_Bucket_3: 68207
Non-critical_ROB_Stalls_Percent_1_Bucket_3: 155608
Critical_ROB_Stalls_Percent_1_Bucket_4: 67283
Non-critical_ROB_Stalls_Percent_1_Bucket_4: 107757
Critical_ROB_Stalls_Percent_1_Bucket_5: 70655
Non-critical_ROB_Stalls_Percent_1_Bucket_5: 94034
Critical_ROB_Stalls_Percent_1_Bucket_6: 238799
Non-critical_ROB_Stalls_Percent_1_Bucket_6: 282395
Critical_ROB_Stalls_Percent_2_Bucket_0: 51
Non-critical_ROB_Stalls_Percent_2_Bucket_0: 1203152
Critical_ROB_Stalls_Percent_2_Bucket_1: 9501
Non-critical_ROB_Stalls_Percent_2_Bucket_1: 766568
Critical_ROB_Stalls_Percent_2_Bucket_2: 57514
Non-critical_ROB_Stalls_Percent_2_Bucket_2: 311964
Critical_ROB_Stalls_Percent_2_Bucket_3: 68207
Non-critical_ROB_Stalls_Percent_2_Bucket_3: 155608
Critical_ROB_Stalls_Percent_2_Bucket_4: 67283
Non-critical_ROB_Stalls_Percent_2_Bucket_4: 107757
Critical_ROB_Stalls_Percent_2_Bucket_5: 70655
Non-critical_ROB_Stalls_Percent_2_Bucket_5: 94034
Critical_ROB_Stalls_Percent_2_Bucket_6: 238799
Non-critical_ROB_Stalls_Percent_2_Bucket_6: 282395
Critical_ROB_Stalls_Percent_3_Bucket_0: 51
Non-critical_ROB_Stalls_Percent_3_Bucket_0: 1203152
Critical_ROB_Stalls_Percent_3_Bucket_1: 9501
Non-critical_ROB_Stalls_Percent_3_Bucket_1: 766568
Critical_ROB_Stalls_Percent_3_Bucket_2: 57514
Non-critical_ROB_Stalls_Percent_3_Bucket_2: 311964
Critical_ROB_Stalls_Percent_3_Bucket_3: 68207
Non-critical_ROB_Stalls_Percent_3_Bucket_3: 155608
Critical_ROB_Stalls_Percent_3_Bucket_4: 67283
Non-critical_ROB_Stalls_Percent_3_Bucket_4: 107757
Critical_ROB_Stalls_Percent_3_Bucket_5: 70655
Non-critical_ROB_Stalls_Percent_3_Bucket_5: 94034
Critical_ROB_Stalls_Percent_3_Bucket_6: 238799
Non-critical_ROB_Stalls_Percent_3_Bucket_6: 282395
Critical_ROB_Stalls_Percent_4_Bucket_0: 51
Non-critical_ROB_Stalls_Percent_4_Bucket_0: 1203152
Critical_ROB_Stalls_Percent_4_Bucket_1: 9501
Non-critical_ROB_Stalls_Percent_4_Bucket_1: 766568
Critical_ROB_Stalls_Percent_4_Bucket_2: 57514
Non-critical_ROB_Stalls_Percent_4_Bucket_2: 311964
Critical_ROB_Stalls_Percent_4_Bucket_3: 68207
Non-critical_ROB_Stalls_Percent_4_Bucket_3: 155608
Critical_ROB_Stalls_Percent_4_Bucket_4: 67283
Non-critical_ROB_Stalls_Percent_4_Bucket_4: 107757
Critical_ROB_Stalls_Percent_4_Bucket_5: 70655
Non-critical_ROB_Stalls_Percent_4_Bucket_5: 94034
Critical_ROB_Stalls_Percent_4_Bucket_6: 238799
Non-critical_ROB_Stalls_Percent_4_Bucket_6: 282395
Critical_ROB_Stalls_Percent_5_Bucket_0: 51
Non-critical_ROB_Stalls_Percent_5_Bucket_0: 1203152
Critical_ROB_Stalls_Percent_5_Bucket_1: 9501
Non-critical_ROB_Stalls_Percent_5_Bucket_1: 766568
Critical_ROB_Stalls_Percent_5_Bucket_2: 57514
Non-critical_ROB_Stalls_Percent_5_Bucket_2: 311964
Critical_ROB_Stalls_Percent_5_Bucket_3: 68207
Non-critical_ROB_Stalls_Percent_5_Bucket_3: 155608
Critical_ROB_Stalls_Percent_5_Bucket_4: 67283
Non-critical_ROB_Stalls_Percent_5_Bucket_4: 107757
Critical_ROB_Stalls_Percent_5_Bucket_5: 70655
Non-critical_ROB_Stalls_Percent_5_Bucket_5: 94034
Critical_ROB_Stalls_Percent_5_Bucket_6: 238799
Non-critical_ROB_Stalls_Percent_5_Bucket_6: 282395
Critical_ROB_Stalls_Percent_6_Bucket_0: 51
Non-critical_ROB_Stalls_Percent_6_Bucket_0: 1203152
Critical_ROB_Stalls_Percent_6_Bucket_1: 9501
Non-critical_ROB_Stalls_Percent_6_Bucket_1: 766568
Critical_ROB_Stalls_Percent_6_Bucket_2: 57514
Non-critical_ROB_Stalls_Percent_6_Bucket_2: 311964
Critical_ROB_Stalls_Percent_6_Bucket_3: 68207
Non-critical_ROB_Stalls_Percent_6_Bucket_3: 155608
Critical_ROB_Stalls_Percent_6_Bucket_4: 67283
Non-critical_ROB_Stalls_Percent_6_Bucket_4: 107757
Critical_ROB_Stalls_Percent_6_Bucket_5: 70655
Non-critical_ROB_Stalls_Percent_6_Bucket_5: 94034
Critical_ROB_Stalls_Percent_6_Bucket_6: 238799
Non-critical_ROB_Stalls_Percent_6_Bucket_6: 282395
Critical_ROB_Stalls_Percent_7_Bucket_0: 51
Non-critical_ROB_Stalls_Percent_7_Bucket_0: 1203152
Critical_ROB_Stalls_Percent_7_Bucket_1: 9501
Non-critical_ROB_Stalls_Percent_7_Bucket_1: 766568
Critical_ROB_Stalls_Percent_7_Bucket_2: 57514
Non-critical_ROB_Stalls_Percent_7_Bucket_2: 311964
Critical_ROB_Stalls_Percent_7_Bucket_3: 68207
Non-critical_ROB_Stalls_Percent_7_Bucket_3: 155608
Critical_ROB_Stalls_Percent_7_Bucket_4: 67283
Non-critical_ROB_Stalls_Percent_7_Bucket_4: 107757
Critical_ROB_Stalls_Percent_7_Bucket_5: 70655
Non-critical_ROB_Stalls_Percent_7_Bucket_5: 94034
Critical_ROB_Stalls_Percent_7_Bucket_6: 238799
Non-critical_ROB_Stalls_Percent_7_Bucket_6: 282395
Critical_ROB_Stalls_Percent_8_Bucket_0: 51
Non-critical_ROB_Stalls_Percent_8_Bucket_0: 1203152
Critical_ROB_Stalls_Percent_8_Bucket_1: 9501
Non-critical_ROB_Stalls_Percent_8_Bucket_1: 766568
Critical_ROB_Stalls_Percent_8_Bucket_2: 57514
Non-critical_ROB_Stalls_Percent_8_Bucket_2: 311964
Critical_ROB_Stalls_Percent_8_Bucket_3: 68207
Non-critical_ROB_Stalls_Percent_8_Bucket_3: 155608
Critical_ROB_Stalls_Percent_8_Bucket_4: 67283
Non-critical_ROB_Stalls_Percent_8_Bucket_4: 107757
Critical_ROB_Stalls_Percent_8_Bucket_5: 70655
Non-critical_ROB_Stalls_Percent_8_Bucket_5: 94034
Critical_ROB_Stalls_Percent_8_Bucket_6: 238799
Non-critical_ROB_Stalls_Percent_8_Bucket_6: 282395
Average ROB occupancy Load Stall Begin: 118.484
Average ROB occupancy Load Stall End: 127.521
Min ROB occupancy Load Stall Begin: 1
Max ROB occupancy Load Stall Begin: 352
Min ROB occupancy Load Stall End: 1
Max ROB occupancy Load Stall End: 352
Average ROB occupancy Critical Load Stall Begin: -nan
Average ROB occupancy Critical Load Stall End: -nan
Min ROB occupancy Critical Load Stall Begin: 400
Max ROB occupancy Critical Load Stall Begin: 0
Min ROB occupancy Critical Load Stall End: 400
Max ROB occupancy Critical Load Stall End: 0
 ROB Load Stall Begin Bucket Count 0: 1491659
 ROB Load Stall End Bucket Count 0: 1203203
 ROB Critical Load Stall Begin Bucket Count 0: 0
 ROB Critical Load Stall End Bucket Count 0: 0
 ROB Load Stall Begin Bucket Count 1: 600955
 ROB Load Stall End Bucket Count 1: 776069
 ROB Critical Load Stall Begin Bucket Count 1: 0
 ROB Critical Load Stall End Bucket Count 1: 0
 ROB Load Stall Begin Bucket Count 2: 310895
 ROB Load Stall End Bucket Count 2: 369478
 ROB Critical Load Stall Begin Bucket Count 2: 0
 ROB Critical Load Stall End Bucket Count 2: 0
 ROB Load Stall Begin Bucket Count 3: 197041
 ROB Load Stall End Bucket Count 3: 223815
 ROB Critical Load Stall Begin Bucket Count 3: 0
 ROB Critical Load Stall End Bucket Count 3: 0
 ROB Load Stall Begin Bucket Count 4: 167732
 ROB Load Stall End Bucket Count 4: 175040
 ROB Critical Load Stall Begin Bucket Count 4: 0
 ROB Critical Load Stall End Bucket Count 4: 0
 ROB Load Stall Begin Bucket Count 5: 157475
 ROB Load Stall End Bucket Count 5: 164689
 ROB Critical Load Stall Begin Bucket Count 5: 0
 ROB Critical Load Stall End Bucket Count 5: 0
 ROB Load Stall Begin Bucket Count 6: 507731
 ROB Load Stall End Bucket Count 6: 521194
 ROB Critical Load Stall Begin Bucket Count 6: 0
 ROB Critical Load Stall End Bucket Count 6: 0
PIST Tag Read Accesses: 0
PIST Read Accesses: 0
PIST Tag Write Accesses: 0
PIST Write Accesses: 0
Criticality detector called times: 0
Max global_stall_cycles_count: 0
Threshold Modified: 0 times, factor: 0
ITLB TOTAL     ACCESS:    9523317  HIT:    9308165  MISS:     215152  HIT %:    97.7408  MISS %:    2.25921   MPKI: 4.30304
ITLB LOAD TRANSLATION ACCESS:    8393626  HIT:    8333242  MISS:      60384  HIT %:    99.2806  MISS %:   0.719403   MPKI: 1.20768
ITLB TRANSLATION FROM L1D PREFETCHER ACCESS:    1129691  HIT:     974923  MISS:     154768  HIT %:       86.3  MISS %:       13.7   MPKI: 3.09536
ITLB PREFETCH  REQUESTED:          0  ISSUED:          0  USEFUL:     126803  USELESS:      27965
ITLB USEFUL LOAD PREFETCHES:     126803 PREFETCH ISSUED TO LOWER LEVEL:          0  ACCURACY: inf
ITLB TIMELY PREFETCHES:     126803 LATE PREFETCHES: 806 DROPPED PREFETCHES: 13725
ITLB PREFETCHES SAME FILL-ORIGIN LEVEL: 0 DIFFERENT FILL-ORIGIN LEVEL: 0
ITLB AVERAGE MISS LATENCY: 172341 cycles
ITLB RQ	ACCESS:   12930354	FORWARD:          0	MERGED:    3365994	TO_CACHE:    9564360

DTLB TOTAL     ACCESS:   10011822  HIT:    8693519  MISS:    1318303  HIT %:    86.8325  MISS %:    13.1675   MPKI: 26.3661
DTLB LOAD TRANSLATION ACCESS:   10011822  HIT:    8693519  MISS:    1318303  HIT %:    86.8325  MISS %:    13.1675   MPKI: 26.3661
DTLB PREFETCH  REQUESTED:          0  ISSUED:          0  USEFUL:          0  USELESS:          0
DTLB USEFUL LOAD PREFETCHES:          0 PREFETCH ISSUED TO LOWER LEVEL:          0  ACCURACY: -nan
DTLB TIMELY PREFETCHES:          0 LATE PREFETCHES: 0 DROPPED PREFETCHES: 0
DTLB PREFETCHES SAME FILL-ORIGIN LEVEL: 0 DIFFERENT FILL-ORIGIN LEVEL: 0
DTLB AVERAGE MISS LATENCY: 11.6343 cycles
DTLB RQ	ACCESS:   13007748	FORWARD:          0	MERGED:    2957091	TO_CACHE:   10050657

STLB TOTAL     ACCESS:    1535260  HIT:    1427264  MISS:     107996  HIT %:    92.9656  MISS %:    7.03438   MPKI: 2.15992
STLB LOAD TRANSLATION ACCESS:    1377881  HIT:    1296077  MISS:      81804  HIT %:    94.0631  MISS %:    5.93694   MPKI: 1.63608
STLB TRANSLATION FROM L1D PREFETCHER ACCESS:     157379  HIT:     131187  MISS:      26192  HIT %:    83.3574  MISS %:    16.6426   MPKI: 0.52384
STLB PREFETCH  REQUESTED:          0  ISSUED:          0  USEFUL:      15282  USELESS:      10875
STLB USEFUL LOAD PREFETCHES:      15282 PREFETCH ISSUED TO LOWER LEVEL:          0  ACCURACY: inf
STLB TIMELY PREFETCHES:      15282 LATE PREFETCHES: 1 DROPPED PREFETCHES: 13725
STLB PREFETCHES SAME FILL-ORIGIN LEVEL: 0 DIFFERENT FILL-ORIGIN LEVEL: 0
STLB AVERAGE MISS LATENCY: 45.5932 cycles
STLB RQ	ACCESS:    1549793	FORWARD:          0	MERGED:        808	TO_CACHE:    1548985

STLB Hit, L1D data hit: 0
STLB Hit, L2C data hit: 0
STLB Hit, LLC data hit: 0
STLB Hit, LLC data miss: 0
STLB STLB hints to L2: 0
L1D TOTAL     ACCESS:   12863096  HIT:   11202158  MISS:    1660938  HIT %:    87.0876  MISS %:    12.9124   MPKI: 33.2188
L1D LOAD      ACCESS:    8113976  HIT:    6546775  MISS:    1567201  HIT %:    80.6852  MISS %:    19.3148   MPKI: 31.344
L1D RFO       ACCESS:    4746594  HIT:    4653838  MISS:      92756  HIT %:    98.0458  MISS %:    1.95416   MPKI: 1.85512
L1D PREFETCH  ACCESS:       2526  HIT:       1545  MISS:        981  HIT %:    61.1639  MISS %:    38.8361   MPKI: 0.01962
L1D PREFETCH  REQUESTED:       5230  ISSUED:       5230  USEFUL:        158  USELESS:        794
L1D USEFUL LOAD PREFETCHES:        158 PREFETCH ISSUED TO LOWER LEVEL:       1005  ACCURACY: 15.7214
L1D TIMELY PREFETCHES:        158 LATE PREFETCHES: 24 DROPPED PREFETCHES: 0
L1D PREFETCHES SAME FILL-ORIGIN LEVEL: 1005 DIFFERENT FILL-ORIGIN LEVEL: 0
L1D AVERAGE MISS LATENCY: 489.4 cycles
L1D RQ	ACCESS:   11601260	FORWARD:          0	MERGED:    3371268	TO_CACHE:    8149629
L1D WQ	ACCESS:    4965307	FORWARD:      80365	MERGED:     107188	TO_CACHE:    4858119
L1D PQ	ACCESS:       2616	FORWARD:          0	MERGED:          0	TO_CACHE:       2614

L1D UNIQUE REGIONS ACCESSED: 0
L1D REGIONS CONFLICTS: 0
L1D Cross Page Prefetch Requests: 0
L1D Same Page Prefetch Requests: 7017
L1D ROI Sum of L1D PQ occupancy: 33817
L1D PREFETCHES PUSHED FROM L2C: 0
L1I TOTAL     ACCESS:   12767864  HIT:   10953465  MISS:    1814399  HIT %:    85.7893  MISS %:    14.2107   MPKI: 36.288
L1I LOAD      ACCESS:   10143794  HIT:    9924284  MISS:     219510  HIT %:     97.836  MISS %:    2.16398   MPKI: 4.3902
L1I PREFETCH  ACCESS:    2624070  HIT:    1029181  MISS:    1594889  HIT %:    39.2208  MISS %:    60.7792   MPKI: 31.8978
L1I PREFETCH  REQUESTED:    2862924  ISSUED:    2853379  USEFUL:    1052826  USELESS:     542025
L1I USEFUL LOAD PREFETCHES:    1052826 PREFETCH ISSUED TO LOWER LEVEL:    1623814  ACCURACY: 64.8366
L1I TIMELY PREFETCHES:    1052826 LATE PREFETCHES: 28930 DROPPED PREFETCHES: 45286
L1I PREFETCHES SAME FILL-ORIGIN LEVEL: 1623814 DIFFERENT FILL-ORIGIN LEVEL: 0
L1I AVERAGE MISS LATENCY: 721740 cycles
L1I RQ	ACCESS:   14602246	FORWARD:          0	MERGED:    4435576	TO_CACHE:   10166670
L1I PQ	ACCESS:    2853379	FORWARD:          0	MERGED:      89695	TO_CACHE:    2763684

BTB TOTAL     ACCESS:    5599983  HIT:    4872064  MISS:     727919  HIT %:    87.0014  MISS %:    12.9986   MPKI: 14.5584
BTB BRANCH_DIRECT_JUMP	ACCESS:     449946  HIT:     393873  MISS:      56073
BTB BRANCH_INDIRECT	ACCESS:     140210  HIT:     110632  MISS:      29578
BTB BRANCH_CONDITIONAL	ACCESS:    3238718  HIT:    3009563  MISS:     229155
BTB BRANCH_DIRECT_CALL	ACCESS:     701578  HIT:     595974  MISS:     105604
BTB BRANCH_INDIRECT_CALL	ACCESS:     168971  HIT:     157981  MISS:      10990
BTB BRANCH_RETURN	ACCESS:     900560  HIT:     604041  MISS:     296519
BTB BRANCH_OTHER ACCESS:          0  HIT:          0  MISS:          0

L2C TOTAL     ACCESS:    3877092  HIT:    2816790  MISS:    1060302  HIT %:    72.6521  MISS %:    27.3479   MPKI: 21.206
L2C LOAD      ACCESS:    1757731  HIT:    1393381  MISS:     364350  HIT %:    79.2716  MISS %:    20.7284   MPKI: 7.287
L2C DATA LOAD MPKI: 5.69516
L2C INSTRUCTION LOAD MPKI: 1.59184
L2C RFO       ACCESS:      92756  HIT:      47018  MISS:      45738  HIT %:      50.69  MISS %:      49.31   MPKI: 0.91476
L2C PREFETCH  ACCESS:    1624823  HIT:    1050750  MISS:     574073  HIT %:    64.6686  MISS %:    35.3314   MPKI: 11.4815
L2C DATA PREFETCH MPKI: 0.01792
L2C INSTRUCTION PREFETCH MPKI: 11.4635
L2C WRITEBACK ACCESS:     239319  HIT:     218985  MISS:      20334  HIT %:    91.5034  MISS %:    8.49661   MPKI: 0.40668
L2C LOAD TRANSLATION ACCESS:     108340  HIT:      62639  MISS:      45701  HIT %:    57.8171  MISS %:    42.1829   MPKI: 0.91402
L2C TRANSLATION FROM L1D PREFETCHER ACCESS:      54123  HIT:      44017  MISS:      10106  HIT %:    81.3277  MISS %:    18.6723   MPKI: 0.20212
L2C PREFETCH  REQUESTED:          0  ISSUED:          0  USEFUL:      16534  USELESS:     568803
L2C USEFUL LOAD PREFETCHES:      16534 PREFETCH ISSUED TO LOWER LEVEL:     574073  ACCURACY: 2.88012
L2C TIMELY PREFETCHES:      16534 LATE PREFETCHES: 0 DROPPED PREFETCHES: 0
L2C PREFETCHES SAME FILL-ORIGIN LEVEL: 0 DIFFERENT FILL-ORIGIN LEVEL: 0
L2C AVERAGE MISS LATENCY: 38.905 cycles
L2C RQ	ACCESS:    2012976	FORWARD:          0	MERGED:          0	TO_CACHE:    2012950
L2C WQ	ACCESS:     239319	FORWARD:         26	MERGED:          0	TO_CACHE:     239319
L2C PQ	ACCESS:    1624819	FORWARD:          0	MERGED:          0	TO_CACHE:    1624819

L2C Instructions Evicting Data 216612
L2C Translations Evicting Data 18587
L2C Data Evicting Data 108422
L2C Instructions Evicting Instructions 402085
L2C Translations Evicting Instructions 34344
L2C Data Evicting Instructions 205066
L2C Instructions Evicting Translations 34072
L2C Translations Evicting Translations 2876
L2C Data Evicting Translations 17904
L2C Dense regions hint from L2: 0
PSCL5 TOTAL     ACCESS:     121720  HIT:     121720  MISS:          0  HIT %:        100  MISS %:          0   MPKI: 0
PSCL5 LOAD TRANSLATION ACCESS:      81802  HIT:      81802  MISS:          0  HIT %:        100  MISS %:          0   MPKI: 0
PSCL5 TRANSLATION FROM L1D PREFETCHER ACCESS:      39918  HIT:      39918  MISS:          0  HIT %:        100  MISS %:          0   MPKI: 0
PSCL5 PREFETCH  REQUESTED:          0  ISSUED:          0  USEFUL:          0  USELESS:          0
PSCL5 USEFUL LOAD PREFETCHES:          0 PREFETCH ISSUED TO LOWER LEVEL:          0  ACCURACY: -nan
PSCL5 TIMELY PREFETCHES:          0 LATE PREFETCHES: 0 DROPPED PREFETCHES: 0
PSCL5 PREFETCHES SAME FILL-ORIGIN LEVEL: 0 DIFFERENT FILL-ORIGIN LEVEL: 0

PSCL4 TOTAL     ACCESS:     110980  HIT:     110676  MISS:        304  HIT %:    99.7261  MISS %:   0.273923   MPKI: 0.00608
PSCL4 LOAD TRANSLATION ACCESS:      74781  HIT:      74477  MISS:        304  HIT %:    99.5935  MISS %:    0.40652   MPKI: 0.00608
PSCL4 TRANSLATION FROM L1D PREFETCHER ACCESS:      36199  HIT:      36199  MISS:          0  HIT %:        100  MISS %:          0   MPKI: 0
PSCL4 PREFETCH  REQUESTED:          0  ISSUED:          0  USEFUL:          0  USELESS:          0
PSCL4 USEFUL LOAD PREFETCHES:          0 PREFETCH ISSUED TO LOWER LEVEL:          0  ACCURACY: -nan
PSCL4 TIMELY PREFETCHES:          0 LATE PREFETCHES: 0 DROPPED PREFETCHES: 0
PSCL4 PREFETCHES SAME FILL-ORIGIN LEVEL: 0 DIFFERENT FILL-ORIGIN LEVEL: 0

PSCL3 TOTAL     ACCESS:     119006  HIT:     118154  MISS:        852  HIT %:    99.2841  MISS %:    0.71593   MPKI: 0.01704
PSCL3 LOAD TRANSLATION ACCESS:      81351  HIT:      80499  MISS:        852  HIT %:    98.9527  MISS %:    1.04731   MPKI: 0.01704
PSCL3 TRANSLATION FROM L1D PREFETCHER ACCESS:      37655  HIT:      37655  MISS:          0  HIT %:        100  MISS %:          0   MPKI: 0
PSCL3 PREFETCH  REQUESTED:          0  ISSUED:          0  USEFUL:          0  USELESS:          0
PSCL3 USEFUL LOAD PREFETCHES:          0 PREFETCH ISSUED TO LOWER LEVEL:          0  ACCURACY: -nan
PSCL3 TIMELY PREFETCHES:          0 LATE PREFETCHES: 0 DROPPED PREFETCHES: 0
PSCL3 PREFETCHES SAME FILL-ORIGIN LEVEL: 0 DIFFERENT FILL-ORIGIN LEVEL: 0

PSCL2 TOTAL     ACCESS:     112666  HIT:      83694  MISS:      28972  HIT %:    74.2851  MISS %:    25.7149   MPKI: 0.57944
PSCL2 LOAD TRANSLATION ACCESS:      85166  HIT:      56194  MISS:      28972  HIT %:    65.9817  MISS %:    34.0183   MPKI: 0.57944
PSCL2 TRANSLATION FROM L1D PREFETCHER ACCESS:      27500  HIT:      27500  MISS:          0  HIT %:        100  MISS %:          0   MPKI: 0
PSCL2 PREFETCH  REQUESTED:          0  ISSUED:          0  USEFUL:          0  USELESS:          0
PSCL2 USEFUL LOAD PREFETCHES:          0 PREFETCH ISSUED TO LOWER LEVEL:          0  ACCURACY: -nan
PSCL2 TIMELY PREFETCHES:          0 LATE PREFETCHES: 0 DROPPED PREFETCHES: 0
PSCL2 PREFETCHES SAME FILL-ORIGIN LEVEL: 0 DIFFERENT FILL-ORIGIN LEVEL: 0

LLC TOTAL     ACCESS:    1160485  HIT:    1097391  MISS:      63094  HIT %:    94.5631  MISS %:    5.43686   MPKI: 1.26188
LLC LOAD      ACCESS:     364350  HIT:     317103  MISS:      47247  HIT %:    87.0325  MISS %:    12.9675   MPKI: 0.94494
LLC RFO       ACCESS:      45738  HIT:      35180  MISS:      10558  HIT %:    76.9163  MISS %:    23.0837   MPKI: 0.21116
LLC PREFETCH  ACCESS:     574073  HIT:     570106  MISS:       3967  HIT %:     99.309  MISS %:   0.691027   MPKI: 0.07934
LLC WRITEBACK ACCESS:     120517  HIT:     120138  MISS:        379  HIT %:    99.6855  MISS %:   0.314478   MPKI: 0.00758
LLC LOAD TRANSLATION ACCESS:      45701  HIT:      44777  MISS:        924  HIT %:    97.9782  MISS %:    2.02184   MPKI: 0.01848
LLC TRANSLATION FROM L1D PREFETCHER ACCESS:      10106  HIT:      10087  MISS:         19  HIT %:     99.812  MISS %:   0.188007   MPKI: 0.00038
LLC PREFETCH  REQUESTED:          0  ISSUED:          0  USEFUL:        267  USELESS:       3405
LLC USEFUL LOAD PREFETCHES:        267 PREFETCH ISSUED TO LOWER LEVEL:       3967  ACCURACY: 6.73053
LLC TIMELY PREFETCHES:        267 LATE PREFETCHES: 0 DROPPED PREFETCHES: 0
LLC PREFETCHES SAME FILL-ORIGIN LEVEL: 0 DIFFERENT FILL-ORIGIN LEVEL: 0
LLC AVERAGE MISS LATENCY: 158.158 cycles
LLC RQ	ACCESS:     465895	FORWARD:          0	MERGED:          0	TO_CACHE:     465895
LLC WQ	ACCESS:     120517	FORWARD:          0	MERGED:          0	TO_CACHE:     120517
LLC PQ	ACCESS:     574073	FORWARD:          0	MERGED:          0	TO_CACHE:     574073

LLC Dense regions hint to LLC: 0

RAW hits: 1006957
Loads Generated: 12608216
Loads sent to L1D: 11601260
Stores Generated: 4965302
Stores sent to L1D: 4965307
Major fault: 0 Minor fault: 5909
Allocated PAGES: 5909
I-Shadow cache 408 bytes
Touched + WorthPF tables 6144 bytes 
MMA filter 174 bytes 
FNL filter 272 bytes 
TOTAL PREFETCHER STORAGE SIZE: 25174 bytes
CPU 0 L1I next line prefetcher final stats

stream: 
stream:times selected: 5459
stream:pref_filled: 3067
stream:pref_useful: 499
stream:pref_late: 76
stream:misses: 136
stream:misses_by_poll: 0

CS: 
CS:times selected: 89
CS:pref_filled: 6
CS:pref_useful: 2
CS:pref_late: 0
CS:misses: 0
CS:misses_by_poll: 0

CPLX: 
CPLX:times selected: 4791
CPLX:pref_filled: 501
CPLX:pref_useful: 59
CPLX:pref_late: 7
CPLX:misses: 240
CPLX:misses_by_poll: 0

NL_L1: 
NL:times selected: 70
NL:pref_filled: 47
NL:pref_useful: 4
NL:pref_late: 0
NL:misses: 4
NL:misses_by_poll: 0

total selections: 10409
total_filled: 981
total_useful: 158
total_late: 84
total_polluted: 0
total_misses_after_warmup: 12990
conflicts: 40892
Degree Incremented Times: 0
Degree Decremented Times: 788

L1 IP Table Write Accesses: 52183
L1 IP Table Read Accesses: 11291
L1 RST Write Accesses: 3693
L1 RST Read Accesses: 7386
L1 CSPT Write Accesses: 3693
L1 CSPT Read Accesses: 7961
L1 RR Filter Tag Write Accesses: 2616
L1 RR Filter Tag Read Accesses: 156478
L1 IP Table Tag Write Accesses: 95231
L1 IP Table Tag Read Accesses: 95231
L1 RST Tag Write Accesses: 0
L1 RST Tag Read Accesses: 25984
L1 RR Filter Write Accesses: 0
L1 RR Filter Read Accesses: 6065
test: 1602

DRAM Statistics
 CHANNEL 0
 RQ ROW_BUFFER_HIT:       8727  ROW_BUFFER_MISS:      53988
 DBUS_CONGESTED:         17
 WQ ROW_BUFFER_HIT:       9522  ROW_BUFFER_MISS:      40206  FULL:          0

 AVG_CONGESTED_CYCLE: 4
 All warmup complete: 2
Channel 0 Bank busy for read cycles: 0
Channel 0 Bank busy for write cycles: 0
Channel 0
Rank 0
0banks busy for read cycles: 72568251
0banks busy for write cycles: 22834
1banks busy for read cycles: 5073530
1banks busy for write cycles: 3085379
2banks busy for read cycles: 1053596
2banks busy for write cycles: 969687
3banks busy for read cycles: 202652
3banks busy for write cycles: 301323
4banks busy for read cycles: 73216
4banks busy for write cycles: 153276
5banks busy for read cycles: 29375
5banks busy for write cycles: 98740
6banks busy for read cycles: 22660
6banks busy for write cycles: 75903
7banks busy for read cycles: 11759
7banks busy for write cycles: 89705
8banks busy for read cycles: 11024
8banks busy for write cycles: 142820

CPU 0 Branch Prediction Accuracy: 99.5528% MPKI: 0.89798 Average ROB Occupancy at Mispredict: 63.5307
Branch types
NOT_BRANCH: 39958764 79.9175%
BRANCH_DIRECT_JUMP: 449946 0.899892%
BRANCH_INDIRECT: 140210 0.28042%
BRANCH_CONDITIONAL: 7679657 15.3593%
BRANCH_DIRECT_CALL: 701578 1.40316%
BRANCH_INDIRECT_CALL: 168971 0.337942%
BRANCH_RETURN: 900560 1.80112%
BRANCH_OTHER: 0 0%

DRAM PAGES: 1048576
Allocated PAGES: 5909
