Initialize SIGNATURE TABLE
ST_SET: 1
ST_WAY: 256
ST_TAG_BIT: 16
ST_TAG_MASK: ffff

Initialize PATTERN TABLE
PT_SET: 512
PT_WAY: 4
SIG_DELTA_BIT: 7
C_SIG_BIT: 4
C_DELTA_BIT: 4

Initialize PREFETCH FILTER
FILTER_SET: 1024

*** ChampSim Multicore Out-of-Order Simulator ***

Warmup Instructions: 50000000
Simulation Instructions: 50000000
Number of CPUs: 1
LLC sets: 2048
LLC ways: 16
Off-chip DRAM Size: 4096 MB Channels: 1 Width: 64-bit Data Rate: 6400 MT/s
CPU 0 runs ../IPC-traces//server_031.champsimtrace.xz
.xz
BTB has LRU replacement policy
ITLB has LRU replacement policy
DTLB has LRU replacement policy
STLB has LRU replacement policy
CPU 0 L1I next line prefetcher
L1I has LRU replacement policy
L1D has LRU replacement policy
Initialize SRRIP state for L2C
Initialize DRRIP state for LLC
Heartbeat CPU 0 instructions: 10000000 cycles: 2883545 heartbeat IPC: 3.46795 cumulative IPC: 3.46795 (Simulation time: 0 hr 5 min 35 sec) 
Heartbeat CPU 0 instructions: 20000000 cycles: 5763023 heartbeat IPC: 3.47285 cumulative IPC: 3.4704 (Simulation time: 0 hr 9 min 9 sec) 
Heartbeat CPU 0 instructions: 30000002 cycles: 8640633 heartbeat IPC: 3.47511 cumulative IPC: 3.47197 (Simulation time: 0 hr 13 min 14 sec) 
Heartbeat CPU 0 instructions: 40000003 cycles: 11518157 heartbeat IPC: 3.47521 cumulative IPC: 3.47278 (Simulation time: 0 hr 17 min 3 sec) 
Heartbeat CPU 0 instructions: 50000001 cycles: 14398339 heartbeat IPC: 3.472 cumulative IPC: 3.47262 (Simulation time: 0 hr 20 min 8 sec) 

Warmup complete CPU 0 instructions: 50000001 cycles: 14398339 (Simulation time: 0 hr 20 min 8 sec) 

Heartbeat CPU 0 instructions: 60000002 cycles: 30896573 heartbeat IPC: 0.606126 cumulative IPC: 0.606126 (Simulation time: 0 hr 23 min 34 sec) 
Heartbeat CPU 0 instructions: 70000001 cycles: 47415579 heartbeat IPC: 0.605363 cumulative IPC: 0.605744 (Simulation time: 0 hr 27 min 10 sec) 
*** Reached end of trace for Core: 0 Repeating trace: ../IPC-traces//server_031.champsimtrace.xz
Heartbeat CPU 0 instructions: 80000000 cycles: 63745169 heartbeat IPC: 0.612385 cumulative IPC: 0.607942 (Simulation time: 0 hr 30 min 36 sec) 
Heartbeat CPU 0 instructions: 90000000 cycles: 80060772 heartbeat IPC: 0.61291 cumulative IPC: 0.609176 (Simulation time: 0 hr 33 min 58 sec) 
Heartbeat CPU 0 instructions: 100000000 cycles: 96285090 heartbeat IPC: 0.616359 cumulative IPC: 0.610599 (Simulation time: 0 hr 38 min 26 sec) 
Finished CPU 0 instructions: 50000000 cycles: 81886757 cumulative IPC: 0.610599 (Simulation time: 0 hr 38 min 26 sec) 

ChampSim completed all CPUs

Region of Interest Statistics

CPU 0 cumulative IPC: 0.610599 instructions: 50000000 cycles: 81886757

CPU 0 Average Load ROB stall cycles: 1.96748e+07
CPU 0 Fraction of times ROB stalled by Loads: 35.4372
CPU 0 Percentage of Load stall cycles in Total stall cycles: 2.71222e+08
Issued all: 27919092
Issued LT all: 22062741
rob_not_full_when_issued_lt_all: 21913944
Issued LT one: 17135260
rob_not_full_when_issued_lt_one: 17004451
 Total stall cycles: 69445271
 Total load stall cycles: 188351114396813
Unique Load IPs: 12877
CPU 0 NUM of IPS identified critical: 29
CPU 0 Num of Load IPs stalling ROB: 0
Threshold modification factor: 0
Trouble in retire width: -nan
MaC = Marked as critical.
lt_50_percent_before_Mac: 5
gt_90_percent_before_Mac: 4
gt_75_percent_before_Mac: 3
gt_50_percent_before_Mac: 14
stall_proportion_bin_same_before_after: 0
stall_proportion_bin_lower_before_after: 0
stall_proportion_bin_upper_before_after: 0
average_stall_proportion_before: 0.033807
average_stall_proportion_after: 0.0348544
Critical_IP_Detector_Accuracy_70: 0
Critical_IP_Detector_Accuracy_80: 0
Critical_IP_Detector_Accuracy_90: 0
Critical_IP_Detector_Coverage_70: 0
Critical_IP_Detector_Coverage_80: 0
Critical_IP_Detector_Coverage_90: 0
stat_90_percent_critical_ip_stalls_freq: 45577
stat_90_percent_non_critical_ip_stalls_freq: 18446744073709506039
AVERAGE_ROB_Occupancy_90_Percent_Critical_IP_Stalls: 17.7113
AVERAGE_ROB_Occupancy_90_Percent_Non_Critical_IP_Stalls: 8.48452e-12
Critical_IP_ROB_Stalls_Bucket_0: 21001
Non-critical_IP_ROB_Stalls_Bucket_0: 2312074
Critical_IP_ROB_Stalls_Bucket_1: 1249
Non-critical_IP_ROB_Stalls_Bucket_1: 709003
Critical_IP_ROB_Stalls_Bucket_2: 138
Non-critical_IP_ROB_Stalls_Bucket_2: 241434
Critical_IP_ROB_Stalls_Bucket_3: 103
Non-critical_IP_ROB_Stalls_Bucket_3: 66817
Critical_IP_ROB_Stalls_Bucket_4: 46
Non-critical_IP_ROB_Stalls_Bucket_4: 24148
Critical_IP_ROB_Stalls_Bucket_5: 13
Non-critical_IP_ROB_Stalls_Bucket_5: 8460
Critical_IP_ROB_Stalls_Bucket_6: 17
Non-critical_IP_ROB_Stalls_Bucket_6: 7971
0 => IPs accounting for >50 percent of stalls, 1 => 55, 2 => 60, 3 => 65 and so on till 90.
percent50: inf num IPs:  1
percent55: inf num IPs: 1
percent60: inf num IPs: 1
percent65: inf num IPs: 1
percent70: inf num IPs: 1
percent75: inf num IPs: 1
percent80: inf num IPs: 1
percent85: inf num IPs: 1
percent90: inf num IPs: 1
Critical_ROB_Stalls_Percent_0_Bucket_0: 45515
Non-critical_ROB_Stalls_Percent_0_Bucket_0: 2287560
Critical_ROB_Stalls_Percent_0_Bucket_1: 58
Non-critical_ROB_Stalls_Percent_0_Bucket_1: 710194
Critical_ROB_Stalls_Percent_0_Bucket_2: 0
Non-critical_ROB_Stalls_Percent_0_Bucket_2: 241572
Critical_ROB_Stalls_Percent_0_Bucket_3: 1
Non-critical_ROB_Stalls_Percent_0_Bucket_3: 66919
Critical_ROB_Stalls_Percent_0_Bucket_4: 2
Non-critical_ROB_Stalls_Percent_0_Bucket_4: 24192
Critical_ROB_Stalls_Percent_0_Bucket_5: 1
Non-critical_ROB_Stalls_Percent_0_Bucket_5: 8472
Critical_ROB_Stalls_Percent_0_Bucket_6: 0
Non-critical_ROB_Stalls_Percent_0_Bucket_6: 7988
Critical_ROB_Stalls_Percent_1_Bucket_0: 45515
Non-critical_ROB_Stalls_Percent_1_Bucket_0: 2287560
Critical_ROB_Stalls_Percent_1_Bucket_1: 58
Non-critical_ROB_Stalls_Percent_1_Bucket_1: 710194
Critical_ROB_Stalls_Percent_1_Bucket_2: 0
Non-critical_ROB_Stalls_Percent_1_Bucket_2: 241572
Critical_ROB_Stalls_Percent_1_Bucket_3: 1
Non-critical_ROB_Stalls_Percent_1_Bucket_3: 66919
Critical_ROB_Stalls_Percent_1_Bucket_4: 2
Non-critical_ROB_Stalls_Percent_1_Bucket_4: 24192
Critical_ROB_Stalls_Percent_1_Bucket_5: 1
Non-critical_ROB_Stalls_Percent_1_Bucket_5: 8472
Critical_ROB_Stalls_Percent_1_Bucket_6: 0
Non-critical_ROB_Stalls_Percent_1_Bucket_6: 7988
Critical_ROB_Stalls_Percent_2_Bucket_0: 45515
Non-critical_ROB_Stalls_Percent_2_Bucket_0: 2287560
Critical_ROB_Stalls_Percent_2_Bucket_1: 58
Non-critical_ROB_Stalls_Percent_2_Bucket_1: 710194
Critical_ROB_Stalls_Percent_2_Bucket_2: 0
Non-critical_ROB_Stalls_Percent_2_Bucket_2: 241572
Critical_ROB_Stalls_Percent_2_Bucket_3: 1
Non-critical_ROB_Stalls_Percent_2_Bucket_3: 66919
Critical_ROB_Stalls_Percent_2_Bucket_4: 2
Non-critical_ROB_Stalls_Percent_2_Bucket_4: 24192
Critical_ROB_Stalls_Percent_2_Bucket_5: 1
Non-critical_ROB_Stalls_Percent_2_Bucket_5: 8472
Critical_ROB_Stalls_Percent_2_Bucket_6: 0
Non-critical_ROB_Stalls_Percent_2_Bucket_6: 7988
Critical_ROB_Stalls_Percent_3_Bucket_0: 45515
Non-critical_ROB_Stalls_Percent_3_Bucket_0: 2287560
Critical_ROB_Stalls_Percent_3_Bucket_1: 58
Non-critical_ROB_Stalls_Percent_3_Bucket_1: 710194
Critical_ROB_Stalls_Percent_3_Bucket_2: 0
Non-critical_ROB_Stalls_Percent_3_Bucket_2: 241572
Critical_ROB_Stalls_Percent_3_Bucket_3: 1
Non-critical_ROB_Stalls_Percent_3_Bucket_3: 66919
Critical_ROB_Stalls_Percent_3_Bucket_4: 2
Non-critical_ROB_Stalls_Percent_3_Bucket_4: 24192
Critical_ROB_Stalls_Percent_3_Bucket_5: 1
Non-critical_ROB_Stalls_Percent_3_Bucket_5: 8472
Critical_ROB_Stalls_Percent_3_Bucket_6: 0
Non-critical_ROB_Stalls_Percent_3_Bucket_6: 7988
Critical_ROB_Stalls_Percent_4_Bucket_0: 45515
Non-critical_ROB_Stalls_Percent_4_Bucket_0: 2287560
Critical_ROB_Stalls_Percent_4_Bucket_1: 58
Non-critical_ROB_Stalls_Percent_4_Bucket_1: 710194
Critical_ROB_Stalls_Percent_4_Bucket_2: 0
Non-critical_ROB_Stalls_Percent_4_Bucket_2: 241572
Critical_ROB_Stalls_Percent_4_Bucket_3: 1
Non-critical_ROB_Stalls_Percent_4_Bucket_3: 66919
Critical_ROB_Stalls_Percent_4_Bucket_4: 2
Non-critical_ROB_Stalls_Percent_4_Bucket_4: 24192
Critical_ROB_Stalls_Percent_4_Bucket_5: 1
Non-critical_ROB_Stalls_Percent_4_Bucket_5: 8472
Critical_ROB_Stalls_Percent_4_Bucket_6: 0
Non-critical_ROB_Stalls_Percent_4_Bucket_6: 7988
Critical_ROB_Stalls_Percent_5_Bucket_0: 45515
Non-critical_ROB_Stalls_Percent_5_Bucket_0: 2287560
Critical_ROB_Stalls_Percent_5_Bucket_1: 58
Non-critical_ROB_Stalls_Percent_5_Bucket_1: 710194
Critical_ROB_Stalls_Percent_5_Bucket_2: 0
Non-critical_ROB_Stalls_Percent_5_Bucket_2: 241572
Critical_ROB_Stalls_Percent_5_Bucket_3: 1
Non-critical_ROB_Stalls_Percent_5_Bucket_3: 66919
Critical_ROB_Stalls_Percent_5_Bucket_4: 2
Non-critical_ROB_Stalls_Percent_5_Bucket_4: 24192
Critical_ROB_Stalls_Percent_5_Bucket_5: 1
Non-critical_ROB_Stalls_Percent_5_Bucket_5: 8472
Critical_ROB_Stalls_Percent_5_Bucket_6: 0
Non-critical_ROB_Stalls_Percent_5_Bucket_6: 7988
Critical_ROB_Stalls_Percent_6_Bucket_0: 45515
Non-critical_ROB_Stalls_Percent_6_Bucket_0: 2287560
Critical_ROB_Stalls_Percent_6_Bucket_1: 58
Non-critical_ROB_Stalls_Percent_6_Bucket_1: 710194
Critical_ROB_Stalls_Percent_6_Bucket_2: 0
Non-critical_ROB_Stalls_Percent_6_Bucket_2: 241572
Critical_ROB_Stalls_Percent_6_Bucket_3: 1
Non-critical_ROB_Stalls_Percent_6_Bucket_3: 66919
Critical_ROB_Stalls_Percent_6_Bucket_4: 2
Non-critical_ROB_Stalls_Percent_6_Bucket_4: 24192
Critical_ROB_Stalls_Percent_6_Bucket_5: 1
Non-critical_ROB_Stalls_Percent_6_Bucket_5: 8472
Critical_ROB_Stalls_Percent_6_Bucket_6: 0
Non-critical_ROB_Stalls_Percent_6_Bucket_6: 7988
Critical_ROB_Stalls_Percent_7_Bucket_0: 45515
Non-critical_ROB_Stalls_Percent_7_Bucket_0: 2287560
Critical_ROB_Stalls_Percent_7_Bucket_1: 58
Non-critical_ROB_Stalls_Percent_7_Bucket_1: 710194
Critical_ROB_Stalls_Percent_7_Bucket_2: 0
Non-critical_ROB_Stalls_Percent_7_Bucket_2: 241572
Critical_ROB_Stalls_Percent_7_Bucket_3: 1
Non-critical_ROB_Stalls_Percent_7_Bucket_3: 66919
Critical_ROB_Stalls_Percent_7_Bucket_4: 2
Non-critical_ROB_Stalls_Percent_7_Bucket_4: 24192
Critical_ROB_Stalls_Percent_7_Bucket_5: 1
Non-critical_ROB_Stalls_Percent_7_Bucket_5: 8472
Critical_ROB_Stalls_Percent_7_Bucket_6: 0
Non-critical_ROB_Stalls_Percent_7_Bucket_6: 7988
Critical_ROB_Stalls_Percent_8_Bucket_0: 45515
Non-critical_ROB_Stalls_Percent_8_Bucket_0: 2287560
Critical_ROB_Stalls_Percent_8_Bucket_1: 58
Non-critical_ROB_Stalls_Percent_8_Bucket_1: 710194
Critical_ROB_Stalls_Percent_8_Bucket_2: 0
Non-critical_ROB_Stalls_Percent_8_Bucket_2: 241572
Critical_ROB_Stalls_Percent_8_Bucket_3: 1
Non-critical_ROB_Stalls_Percent_8_Bucket_3: 66919
Critical_ROB_Stalls_Percent_8_Bucket_4: 2
Non-critical_ROB_Stalls_Percent_8_Bucket_4: 24192
Critical_ROB_Stalls_Percent_8_Bucket_5: 1
Non-critical_ROB_Stalls_Percent_8_Bucket_5: 8472
Critical_ROB_Stalls_Percent_8_Bucket_6: 0
Non-critical_ROB_Stalls_Percent_8_Bucket_6: 7988
Average ROB occupancy Load Stall Begin: 37.82
Average ROB occupancy Load Stall End: 46.373
Min ROB occupancy Load Stall Begin: 1
Max ROB occupancy Load Stall Begin: 352
Min ROB occupancy Load Stall End: 1
Max ROB occupancy Load Stall End: 352
Average ROB occupancy Critical Load Stall Begin: 27.9933
Average ROB occupancy Critical Load Stall End: 33.9643
Min ROB occupancy Critical Load Stall Begin: 2
Max ROB occupancy Critical Load Stall Begin: 350
Min ROB occupancy Critical Load Stall End: 2
Max ROB occupancy Critical Load Stall End: 352
 ROB Load Stall Begin Bucket Count 0: 2599772
 ROB Load Stall End Bucket Count 0: 2333075
 ROB Critical Load Stall Begin Bucket Count 0: 5873
 ROB Critical Load Stall End Bucket Count 0: 5779
 ROB Load Stall Begin Bucket Count 1: 520776
 ROB Load Stall End Bucket Count 1: 710252
 ROB Critical Load Stall Begin Bucket Count 1: 255
 ROB Critical Load Stall End Bucket Count 1: 341
 ROB Load Stall Begin Bucket Count 2: 186614
 ROB Load Stall End Bucket Count 2: 241572
 ROB Critical Load Stall Begin Bucket Count 2: 47
 ROB Critical Load Stall End Bucket Count 2: 50
 ROB Load Stall Begin Bucket Count 3: 52731
 ROB Load Stall End Bucket Count 3: 66920
 ROB Critical Load Stall Begin Bucket Count 3: 44
 ROB Critical Load Stall End Bucket Count 3: 46
 ROB Load Stall Begin Bucket Count 4: 18806
 ROB Load Stall End Bucket Count 4: 24194
 ROB Critical Load Stall Begin Bucket Count 4: 19
 ROB Critical Load Stall End Bucket Count 4: 23
 ROB Load Stall Begin Bucket Count 5: 6696
 ROB Load Stall End Bucket Count 5: 8473
 ROB Critical Load Stall Begin Bucket Count 5: 4
 ROB Critical Load Stall End Bucket Count 5: 4
 ROB Load Stall Begin Bucket Count 6: 7079
 ROB Load Stall End Bucket Count 6: 7988
 ROB Critical Load Stall Begin Bucket Count 6: 3
 ROB Critical Load Stall End Bucket Count 6: 3
PIST Tag Read Accesses: 0
PIST Read Accesses: 0
PIST Tag Write Accesses: 0
PIST Write Accesses: 0
Criticality detector called times: 0
Max global_stall_cycles_count: 0
Threshold Modified: 0 times, factor: 0
Sturdy critical IP cache stats: 
 Unused entries: 0
CIC Tag Read Accesses: 0
CIC Read Accesses: 0
CIC Tag Write Accesses: 0
CIC Write Accesses: 0
Wobbly critical IP cache stats: 
 Unused entries: 0
CIC Tag Read Accesses: 147718293
CIC Read Accesses: 0
CIC Tag Write Accesses: 169413
CIC Write Accesses: 0
ITLB TOTAL     ACCESS:   10430749  HIT:    9671833  MISS:     758916  HIT %:    92.7242  MISS %:    7.27576   MPKI: 15.1783
ITLB LOAD TRANSLATION ACCESS:    8209463  HIT:    8163427  MISS:      46036  HIT %:    99.4392  MISS %:   0.560767   MPKI: 0.92072
ITLB TRANSLATION FROM L1D PREFETCHER ACCESS:    2221286  HIT:    1508406  MISS:     712880  HIT %:    67.9069  MISS %:    32.0931   MPKI: 14.2576
ITLB PREFETCH  REQUESTED:          0  ISSUED:          0  USEFUL:     573418  USELESS:     139463
ITLB USEFUL LOAD PREFETCHES:     573418 PREFETCH ISSUED TO LOWER LEVEL:          0  ACCURACY: inf
ITLB TIMELY PREFETCHES:     573418 LATE PREFETCHES: 134 DROPPED PREFETCHES: 5541
ITLB PREFETCHES SAME FILL-ORIGIN LEVEL: 0 DIFFERENT FILL-ORIGIN LEVEL: 0
ITLB AVERAGE MISS LATENCY: 10280.4 cycles
ITLB RQ	ACCESS:   15974417	FORWARD:          0	MERGED:    5496203	TO_CACHE:   10478214

DTLB TOTAL     ACCESS:   11396451  HIT:   10838537  MISS:     557914  HIT %:    95.1045  MISS %:    4.89551   MPKI: 11.1583
DTLB LOAD TRANSLATION ACCESS:   11396451  HIT:   10838537  MISS:     557914  HIT %:    95.1045  MISS %:    4.89551   MPKI: 11.1583
DTLB PREFETCH  REQUESTED:          0  ISSUED:          0  USEFUL:          0  USELESS:          0
DTLB USEFUL LOAD PREFETCHES:          0 PREFETCH ISSUED TO LOWER LEVEL:          0  ACCURACY: -nan
DTLB TIMELY PREFETCHES:          0 LATE PREFETCHES: 0 DROPPED PREFETCHES: 0
DTLB PREFETCHES SAME FILL-ORIGIN LEVEL: 0 DIFFERENT FILL-ORIGIN LEVEL: 0
DTLB AVERAGE MISS LATENCY: 11.0731 cycles
DTLB RQ	ACCESS:   14920496	FORWARD:          0	MERGED:    3496687	TO_CACHE:   11423809

STLB TOTAL     ACCESS:    1316830  HIT:    1300780  MISS:      16050  HIT %:    98.7812  MISS %:    1.21884   MPKI: 0.321
STLB LOAD TRANSLATION ACCESS:     603816  HIT:     589789  MISS:      14027  HIT %:    97.6769  MISS %:    2.32306   MPKI: 0.28054
STLB TRANSLATION FROM L1D PREFETCHER ACCESS:     713014  HIT:     710991  MISS:       2023  HIT %:    99.7163  MISS %:   0.283725   MPKI: 0.04046
STLB PREFETCH  REQUESTED:          0  ISSUED:          0  USEFUL:       1458  USELESS:        554
STLB USEFUL LOAD PREFETCHES:       1458 PREFETCH ISSUED TO LOWER LEVEL:          0  ACCURACY: inf
STLB TIMELY PREFETCHES:       1458 LATE PREFETCHES: 0 DROPPED PREFETCHES: 5541
STLB PREFETCHES SAME FILL-ORIGIN LEVEL: 0 DIFFERENT FILL-ORIGIN LEVEL: 0
STLB AVERAGE MISS LATENCY: 77.9256 cycles
STLB RQ	ACCESS:    1322371	FORWARD:          0	MERGED:          0	TO_CACHE:    1322371

STLB Hit, L1D data hit: 0
STLB Hit, L2C data hit: 0
STLB Hit, LLC data hit: 0
STLB Hit, LLC data miss: 0
STLB STLB hints to L2: 0
L1D TOTAL     ACCESS:   14387867  HIT:   13149074  MISS:    1238793  HIT %:      91.39  MISS %:    8.60998   MPKI: 24.7759
L1D LOAD      ACCESS:    7964233  HIT:    7028589  MISS:     935644  HIT %:    88.2519  MISS %:    11.7481   MPKI: 18.7129
L1D RFO       ACCESS:    6423634  HIT:    6120485  MISS:     303149  HIT %:    95.2807  MISS %:    4.71928   MPKI: 6.06298
L1D PREFETCH  REQUESTED:          0  ISSUED:          0  USEFUL:          0  USELESS:          0
L1D USEFUL LOAD PREFETCHES:          0 PREFETCH ISSUED TO LOWER LEVEL:          0  ACCURACY: -nan
L1D TIMELY PREFETCHES:          0 LATE PREFETCHES: 0 DROPPED PREFETCHES: 0
L1D PREFETCHES SAME FILL-ORIGIN LEVEL: 0 DIFFERENT FILL-ORIGIN LEVEL: 0
L1D AVERAGE MISS LATENCY: 23.13 cycles
L1D RQ	ACCESS:   11357606	FORWARD:          0	MERGED:    3199233	TO_CACHE:    8005949
L1D WQ	ACCESS:    6987103	FORWARD:     152424	MERGED:      72556	TO_CACHE:    6914547

L1D UNIQUE REGIONS ACCESSED: 0
L1D REGIONS CONFLICTS: 0
L1D Cross Page Prefetch Requests: 0
L1D Same Page Prefetch Requests: 0
L1D ROI Sum of L1D PQ occupancy: 0
L1D PREFETCHES PUSHED FROM L2C: 0
L1I TOTAL     ACCESS:   15887570  HIT:   11481211  MISS:    4406359  HIT %:    72.2654  MISS %:    27.7346   MPKI: 88.1272
L1I LOAD      ACCESS:    9703835  HIT:    9628683  MISS:      75152  HIT %:    99.2255  MISS %:   0.774457   MPKI: 1.50304
L1I PREFETCH  ACCESS:    6183735  HIT:    1852528  MISS:    4331207  HIT %:    29.9581  MISS %:    70.0419   MPKI: 86.6241
L1I PREFETCH  REQUESTED:    6404593  ISSUED:    6389288  USEFUL:    3067421  USELESS:    1263822
L1I USEFUL LOAD PREFETCHES:    3067421 PREFETCH ISSUED TO LOWER LEVEL:    4343686  ACCURACY: 70.6179
L1I TIMELY PREFETCHES:    3067421 LATE PREFETCHES: 12481 DROPPED PREFETCHES: 12081
L1I PREFETCHES SAME FILL-ORIGIN LEVEL: 4343686 DIFFERENT FILL-ORIGIN LEVEL: 0
L1I AVERAGE MISS LATENCY: 155144 cycles
L1I RQ	ACCESS:   13651641	FORWARD:          0	MERGED:    3937550	TO_CACHE:    9714091
L1I PQ	ACCESS:    6389288	FORWARD:          0	MERGED:     128962	TO_CACHE:    6260326

BTB TOTAL     ACCESS:    6108836  HIT:    4217940  MISS:    1890896  HIT %:    69.0465  MISS %:    30.9535   MPKI: 37.8179
BTB BRANCH_DIRECT_JUMP	ACCESS:     546483  HIT:     394596  MISS:     151887
BTB BRANCH_INDIRECT	ACCESS:     172434  HIT:     135682  MISS:      36752
BTB BRANCH_CONDITIONAL	ACCESS:    2972191  HIT:    2453639  MISS:     518552
BTB BRANCH_DIRECT_CALL	ACCESS:    1018498  HIT:     648527  MISS:     369971
BTB BRANCH_INDIRECT_CALL	ACCESS:     190374  HIT:     119426  MISS:      70948
BTB BRANCH_RETURN	ACCESS:    1208856  HIT:     466070  MISS:     742786
BTB BRANCH_OTHER ACCESS:          0  HIT:          0  MISS:          0

L2C TOTAL     ACCESS:    7308460  HIT:    6914277  MISS:     394183  HIT %:    94.6065  MISS %:    5.39352   MPKI: 7.88366
L2C LOAD      ACCESS:     998306  HIT:     859149  MISS:     139157  HIT %:    86.0607  MISS %:    13.9393   MPKI: 2.78314
L2C DATA LOAD MPKI: 2.61378
L2C INSTRUCTION LOAD MPKI: 0.16936
L2C RFO       ACCESS:     303150  HIT:     271424  MISS:      31726  HIT %:    89.5346  MISS %:    10.4654   MPKI: 0.63452
L2C PREFETCH  ACCESS:    5398074  HIT:    5201658  MISS:     196416  HIT %:    96.3614  MISS %:    3.63863   MPKI: 3.92832
L2C DATA PREFETCH MPKI: 0.11112
L2C INSTRUCTION PREFETCH MPKI: 3.8172
L2C WRITEBACK ACCESS:     575918  HIT:     561407  MISS:      14511  HIT %:    97.4804  MISS %:    2.51963   MPKI: 0.29022
L2C LOAD TRANSLATION ACCESS:      21313  HIT:       9782  MISS:      11531  HIT %:    45.8969  MISS %:    54.1031   MPKI: 0.23062
L2C TRANSLATION FROM L1D PREFETCHER ACCESS:      11699  HIT:      10857  MISS:        842  HIT %:    92.8028  MISS %:     7.1972   MPKI: 0.01684
L2C PREFETCH  REQUESTED:    4835383  ISSUED:    4835371  USEFUL:       2674  USELESS:     194710
L2C USEFUL LOAD PREFETCHES:       2674 PREFETCH ISSUED TO LOWER LEVEL:    1001624  ACCURACY: 0.266966
L2C TIMELY PREFETCHES:       2674 LATE PREFETCHES: 0 DROPPED PREFETCHES: 0
L2C PREFETCHES SAME FILL-ORIGIN LEVEL: 5561 DIFFERENT FILL-ORIGIN LEVEL: 805208
L2C AVERAGE MISS LATENCY: 43.4609 cycles
L2C RQ	ACCESS:    1334476	FORWARD:          0	MERGED:          0	TO_CACHE:    1334468
L2C WQ	ACCESS:     575918	FORWARD:          8	MERGED:          0	TO_CACHE:     575918
L2C PQ	ACCESS:    9179057	FORWARD:          0	MERGED:    2973894	TO_CACHE:    6205163

L2C Instructions Evicting Data 80112
L2C Translations Evicting Data 7502
L2C Data Evicting Data 88994
L2C Instructions Evicting Instructions 115314
L2C Translations Evicting Instructions 3797
L2C Data Evicting Instructions 71841
L2C Instructions Evicting Translations 3902
L2C Translations Evicting Translations 1074
L2C Data Evicting Translations 7136
L2C Dense regions hint from L2: 0
PSCL5 TOTAL     ACCESS:      21591  HIT:      21591  MISS:          0  HIT %:        100  MISS %:          0   MPKI: 0
PSCL5 LOAD TRANSLATION ACCESS:      14027  HIT:      14027  MISS:          0  HIT %:        100  MISS %:          0   MPKI: 0
PSCL5 TRANSLATION FROM L1D PREFETCHER ACCESS:       7564  HIT:       7564  MISS:          0  HIT %:        100  MISS %:          0   MPKI: 0
PSCL5 PREFETCH  REQUESTED:          0  ISSUED:          0  USEFUL:          0  USELESS:          0
PSCL5 USEFUL LOAD PREFETCHES:          0 PREFETCH ISSUED TO LOWER LEVEL:          0  ACCURACY: -nan
PSCL5 TIMELY PREFETCHES:          0 LATE PREFETCHES: 0 DROPPED PREFETCHES: 0
PSCL5 PREFETCHES SAME FILL-ORIGIN LEVEL: 0 DIFFERENT FILL-ORIGIN LEVEL: 0

PSCL4 TOTAL     ACCESS:      20281  HIT:      20091  MISS:        190  HIT %:    99.0632  MISS %:   0.936837   MPKI: 0.0038
PSCL4 LOAD TRANSLATION ACCESS:      13118  HIT:      12928  MISS:        190  HIT %:    98.5516  MISS %:    1.44839   MPKI: 0.0038
PSCL4 TRANSLATION FROM L1D PREFETCHER ACCESS:       7163  HIT:       7163  MISS:          0  HIT %:        100  MISS %:          0   MPKI: 0
PSCL4 PREFETCH  REQUESTED:          0  ISSUED:          0  USEFUL:          0  USELESS:          0
PSCL4 USEFUL LOAD PREFETCHES:          0 PREFETCH ISSUED TO LOWER LEVEL:          0  ACCURACY: -nan
PSCL4 TIMELY PREFETCHES:          0 LATE PREFETCHES: 0 DROPPED PREFETCHES: 0
PSCL4 PREFETCHES SAME FILL-ORIGIN LEVEL: 0 DIFFERENT FILL-ORIGIN LEVEL: 0

PSCL3 TOTAL     ACCESS:      21463  HIT:      21270  MISS:        193  HIT %:    99.1008  MISS %:   0.899222   MPKI: 0.00386
PSCL3 LOAD TRANSLATION ACCESS:      14034  HIT:      13841  MISS:        193  HIT %:    98.6248  MISS %:    1.37523   MPKI: 0.00386
PSCL3 TRANSLATION FROM L1D PREFETCHER ACCESS:       7429  HIT:       7429  MISS:          0  HIT %:        100  MISS %:          0   MPKI: 0
PSCL3 PREFETCH  REQUESTED:          0  ISSUED:          0  USEFUL:          0  USELESS:          0
PSCL3 USEFUL LOAD PREFETCHES:          0 PREFETCH ISSUED TO LOWER LEVEL:          0  ACCURACY: -nan
PSCL3 TIMELY PREFETCHES:          0 LATE PREFETCHES: 0 DROPPED PREFETCHES: 0
PSCL3 PREFETCHES SAME FILL-ORIGIN LEVEL: 0 DIFFERENT FILL-ORIGIN LEVEL: 0

PSCL2 TOTAL     ACCESS:      18438  HIT:      10666  MISS:       7772  HIT %:    57.8479  MISS %:    42.1521   MPKI: 0.15544
PSCL2 LOAD TRANSLATION ACCESS:      14817  HIT:       7045  MISS:       7772  HIT %:    47.5467  MISS %:    52.4533   MPKI: 0.15544
PSCL2 TRANSLATION FROM L1D PREFETCHER ACCESS:       3621  HIT:       3621  MISS:          0  HIT %:        100  MISS %:          0   MPKI: 0
PSCL2 PREFETCH  REQUESTED:          0  ISSUED:          0  USEFUL:          0  USELESS:          0
PSCL2 USEFUL LOAD PREFETCHES:          0 PREFETCH ISSUED TO LOWER LEVEL:          0  ACCURACY: -nan
PSCL2 TIMELY PREFETCHES:          0 LATE PREFETCHES: 0 DROPPED PREFETCHES: 0
PSCL2 PREFETCHES SAME FILL-ORIGIN LEVEL: 0 DIFFERENT FILL-ORIGIN LEVEL: 0

LLC TOTAL     ACCESS:    1224548  HIT:    1180502  MISS:      44046  HIT %:    96.4031  MISS %:    3.59692   MPKI: 0.88092
LLC LOAD      ACCESS:     139157  HIT:     106762  MISS:      32395  HIT %:    76.7205  MISS %:    23.2795   MPKI: 0.6479
LLC RFO       ACCESS:      31726  HIT:      27430  MISS:       4296  HIT %:    86.4591  MISS %:    13.5409   MPKI: 0.08592
LLC PREFETCH  ACCESS:     997382  HIT:     992251  MISS:       5131  HIT %:    99.4856  MISS %:   0.514447   MPKI: 0.10262
LLC WRITEBACK ACCESS:      43910  HIT:      43440  MISS:        470  HIT %:    98.9296  MISS %:    1.07037   MPKI: 0.0094
LLC LOAD TRANSLATION ACCESS:      11531  HIT:       9800  MISS:       1731  HIT %:    84.9883  MISS %:    15.0117   MPKI: 0.03462
LLC TRANSLATION FROM L1D PREFETCHER ACCESS:        842  HIT:        819  MISS:         23  HIT %:    97.2684  MISS %:    2.73159   MPKI: 0.00046
LLC PREFETCH  REQUESTED:          0  ISSUED:          0  USEFUL:        416  USELESS:       8627
LLC USEFUL LOAD PREFETCHES:        416 PREFETCH ISSUED TO LOWER LEVEL:       5135  ACCURACY: 8.10127
LLC TIMELY PREFETCHES:        416 LATE PREFETCHES: 4 DROPPED PREFETCHES: 0
LLC PREFETCHES SAME FILL-ORIGIN LEVEL: 3713 DIFFERENT FILL-ORIGIN LEVEL: 0
LLC AVERAGE MISS LATENCY: 144.779 cycles
LLC RQ	ACCESS:     183256	FORWARD:          0	MERGED:          0	TO_CACHE:     183256
LLC WQ	ACCESS:      43910	FORWARD:          0	MERGED:          0	TO_CACHE:      43910
LLC PQ	ACCESS:    1001624	FORWARD:          0	MERGED:       4206	TO_CACHE:     997418

LLC Dense regions hint to LLC: 0

RAW hits: 1099801
Loads Generated: 12457407
Loads sent to L1D: 11357606
Stores Generated: 6987099
Stores sent to L1D: 6987103
Major fault: 0 Minor fault: 6261
Allocated PAGES: 6261
I-Shadow cache 408 bytes
Touched + WorthPF tables 6144 bytes 
MMA filter 174 bytes 
FNL filter 272 bytes 
TOTAL PREFETCHER STORAGE SIZE: 25174 bytes
CPU 0 L1I next line prefetcher final stats
 All Calls: 10500090
 Critical Calls: 7102138
------------------
Depth Distribution
------------------
depth 0: 0
depth 1: 6317776
depth 2: 3074891
depth 3: 142618
depth 4: 892
depth 5: 101
depth 6: 83
depth 7: 69
depth 8: 51
depth 9: 40
depth 10: 22
depth 11: 5
depth 12: 3
depth 13: 1
depth 14: 1
depth 15: 0
depth 16: 0
depth 17: 0
depth 18: 0
depth 19: 0
depth 20: 0
depth 21: 0
depth 22: 0
depth 23: 0
depth 24: 0
depth 25: 0
depth 26: 0
depth 27: 0
depth 28: 0
depth 29: 0
Total: 9536553
-----------------------------
-----------------------------
	Captured at Filter
-----------------------------
depth 0: 0
depth 1: 651141
depth 2: 296270
depth 3: 18211
depth 4: 47
depth 5: 1
depth 6: 1
depth 7: 1
depth 8: 1
depth 9: 0
depth 10: 0
depth 11: 0
depth 12: 0
depth 13: 0
depth 14: 0
depth 15: 0
depth 16: 0
depth 17: 0
depth 18: 0
depth 19: 0
depth 20: 0
depth 21: 0
depth 22: 0
depth 23: 0
depth 24: 0
depth 25: 0
depth 26: 0
depth 27: 0
depth 28: 0
depth 29: 0
-----------------------------
-----------------------------
		Lost at Page
-----------------------------
depth 0: 0
depth 1: 148243
depth 2: 95416
depth 3: 5823
depth 4: 28
depth 5: 5
depth 6: 6
depth 7: 7
depth 8: 7
depth 9: 6
depth 10: 2
depth 11: 1
depth 12: 2
depth 13: 0
depth 14: 0
depth 15: 0
depth 16: 0
depth 17: 0
depth 18: 0
depth 19: 0
depth 20: 0
depth 21: 0
depth 22: 0
depth 23: 0
depth 24: 0
depth 25: 0
depth 26: 0
depth 27: 0
depth 28: 0
depth 29: 0
-----------------------------
-----------------------------
	Lost due to PQ Size
-----------------------------
40238
-----------------------------
ST read accesses: 2959992
ST write accesses: 289987
PT read accesses: 46920955
PT write accesses: 4060930
FILTER read accesses: 9035815
FILTER write accesses: 623381
GHR read accesses: 3065640
GHR write accesses: 131621
GHR counter read accesses: 40932158
GHR counter write accesses: 3481998
ST tag read accesses: 1394147235
ST tag write accesses: 119098976

DRAM Statistics
 CHANNEL 0
 RQ ROW_BUFFER_HIT:      12762  ROW_BUFFER_MISS:      30814
 DBUS_CONGESTED:         11
 WQ ROW_BUFFER_HIT:       1052  ROW_BUFFER_MISS:       3534  FULL:          0

 AVG_CONGESTED_CYCLE: 5
 All warmup complete: 2
Channel 0 Bank busy for read cycles: 0
Channel 0 Bank busy for write cycles: 0
Channel 0
Rank 0
0banks busy for read cycles: 76984020
0banks busy for write cycles: 2775
1banks busy for read cycles: 3193720
1banks busy for write cycles: 618562
2banks busy for read cycles: 524437
2banks busy for write cycles: 179934
3banks busy for read cycles: 144767
3banks busy for write cycles: 80338
4banks busy for read cycles: 31885
4banks busy for write cycles: 30486
5banks busy for read cycles: 16406
5banks busy for write cycles: 12450
6banks busy for read cycles: 12921
6banks busy for write cycles: 5096
7banks busy for read cycles: 15101
7banks busy for write cycles: 2296
8banks busy for read cycles: 24368
8banks busy for write cycles: 7196

CPU 0 Branch Prediction Accuracy: 99.6894% MPKI: 0.58048 Average ROB Occupancy at Mispredict: 91.7085
Branch types
NOT_BRANCH: 40655555 81.3111%
BRANCH_DIRECT_JUMP: 546483 1.09297%
BRANCH_INDIRECT: 172434 0.344868%
BRANCH_CONDITIONAL: 6207558 12.4151%
BRANCH_DIRECT_CALL: 1018498 2.037%
BRANCH_INDIRECT_CALL: 190374 0.380748%
BRANCH_RETURN: 1208856 2.41771%
BRANCH_OTHER: 0 0%

DRAM PAGES: 1048576
Allocated PAGES: 6261
