
*** ChampSim Multicore Out-of-Order Simulator ***

Warmup Instructions: 50000000
Simulation Instructions: 50000000
Number of CPUs: 1
LLC sets: 2048
LLC ways: 16
Off-chip DRAM Size: 4096 MB Channels: 1 Width: 64-bit Data Rate: 6400 MT/s
CPU 0 runs ../IPC-traces//server_018.champsimtrace.xz
.xz
BTB has LRU replacement policy
ITLB has LRU replacement policy
DTLB has LRU replacement policy
STLB has LRU replacement policy
CPU 0 L1I next line prefetcher
L1I has LRU replacement policy
IP Table Entries: 64
L1D has LRU replacement policy
Initialize SRRIP state for L2C
Initialize DRRIP state for LLC
Heartbeat CPU 0 instructions: 10000003 cycles: 3173996 heartbeat IPC: 3.1506 cumulative IPC: 3.1506 (Simulation time: 0 hr 2 min 28 sec) 
Heartbeat CPU 0 instructions: 20000001 cycles: 6334341 heartbeat IPC: 3.16421 cumulative IPC: 3.15739 (Simulation time: 0 hr 4 min 55 sec) 
Heartbeat CPU 0 instructions: 30000001 cycles: 9413391 heartbeat IPC: 3.24776 cumulative IPC: 3.18695 (Simulation time: 0 hr 7 min 14 sec) 
Heartbeat CPU 0 instructions: 40000002 cycles: 12501544 heartbeat IPC: 3.23818 cumulative IPC: 3.1996 (Simulation time: 0 hr 9 min 38 sec) 
Heartbeat CPU 0 instructions: 50000003 cycles: 15656951 heartbeat IPC: 3.16916 cumulative IPC: 3.19347 (Simulation time: 0 hr 11 min 57 sec) 

Warmup complete CPU 0 instructions: 50000003 cycles: 15656951 (Simulation time: 0 hr 11 min 57 sec) 

Heartbeat CPU 0 instructions: 60000000 cycles: 35432135 heartbeat IPC: 0.505684 cumulative IPC: 0.505684 (Simulation time: 0 hr 15 min 44 sec) 
Heartbeat CPU 0 instructions: 70000000 cycles: 55151986 heartbeat IPC: 0.507103 cumulative IPC: 0.506393 (Simulation time: 0 hr 19 min 34 sec) 
Heartbeat CPU 0 instructions: 80000000 cycles: 74376092 heartbeat IPC: 0.52018 cumulative IPC: 0.510907 (Simulation time: 0 hr 23 min 13 sec) 
Heartbeat CPU 0 instructions: 90000000 cycles: 93028004 heartbeat IPC: 0.536138 cumulative IPC: 0.516989 (Simulation time: 0 hr 28 min 7 sec) 
Heartbeat CPU 0 instructions: 100000001 cycles: 111591449 heartbeat IPC: 0.538693 cumulative IPC: 0.521189 (Simulation time: 0 hr 32 min 56 sec) 
Finished CPU 0 instructions: 50000002 cycles: 95934499 cumulative IPC: 0.521189 (Simulation time: 0 hr 32 min 56 sec) 

ChampSim completed all CPUs

Region of Interest Statistics

CPU 0 cumulative IPC: 0.521189 instructions: 50000002 cycles: 95934499

CPU 0 Average Load ROB stall cycles: 2.93507e+07
CPU 0 Fraction of times ROB stalled by Loads: 45.5687
CPU 0 Percentage of Load stall cycles in Total stall cycles: 2.63981e+08
Issued all: 48293190
Issued LT all: 42976191
rob_not_full_when_issued_lt_all: 16955411
Issued LT one: 37180739
rob_not_full_when_issued_lt_one: 12931977
FVP critical_dynamic_instances_0: 2661837
FVP unique_critical_ips_0: 2895
 Total stall cycles: 78701575
 Total load stall cycles: 207757040486015
Unique Load IPs: 6266
CPU 0 NUM of IPS identified critical: 0
CPU 0 Num of Load IPs stalling ROB: 0
Threshold modification factor: 0
Trouble in retire width: -nan
MaC = Marked as critical.
lt_50_percent_before_Mac: 0
gt_90_percent_before_Mac: 0
gt_75_percent_before_Mac: 0
gt_50_percent_before_Mac: 0
stall_proportion_bin_same_before_after: 0
stall_proportion_bin_lower_before_after: 0
stall_proportion_bin_upper_before_after: 0
average_stall_proportion_before: -nan
average_stall_proportion_after: -nan
Critical IP stalls, total frequency: 0
Non-critical IP stalls, total frequency: 0
Total Freq all stalling IPs: 0
Critical_IP_Detector_Accuracy_70: 0.000345423
Critical_IP_Detector_Accuracy_80: 0.000345423
Critical_IP_Detector_Accuracy_90: 0.000345423
Critical_IP_Detector_Coverage_70: 1
Critical_IP_Detector_Coverage_80: 1
Critical_IP_Detector_Coverage_90: 1
stat_90_percent_critical_ip_stalls_freq: 287185
stat_90_percent_non_critical_ip_stalls_freq: 18446744073709264431
AVERAGE_ROB_Occupancy_90_Percent_Critical_IP_Stalls: 312.242
AVERAGE_ROB_Occupancy_90_Percent_Non_Critical_IP_Stalls: 2.87905e-11
Critical_IP_ROB_Stalls_Bucket_0: 0
Non-critical_IP_ROB_Stalls_Bucket_0: 484244
Critical_IP_ROB_Stalls_Bucket_1: 0
Non-critical_IP_ROB_Stalls_Bucket_1: 606638
Critical_IP_ROB_Stalls_Bucket_2: 0
Non-critical_IP_ROB_Stalls_Bucket_2: 454765
Critical_IP_ROB_Stalls_Bucket_3: 0
Non-critical_IP_ROB_Stalls_Bucket_3: 276614
Critical_IP_ROB_Stalls_Bucket_4: 0
Non-critical_IP_ROB_Stalls_Bucket_4: 167003
Critical_IP_ROB_Stalls_Bucket_5: 0
Non-critical_IP_ROB_Stalls_Bucket_5: 151268
Critical_IP_ROB_Stalls_Bucket_6: 0
Non-critical_IP_ROB_Stalls_Bucket_6: 1085021
0 => IPs accounting for >50 percent of stalls, 1 => 55, 2 => 60, 3 => 65 and so on till 90.
percent50: inf num IPs:  1
percent55: inf num IPs: 1
percent60: inf num IPs: 1
percent65: inf num IPs: 1
percent70: inf num IPs: 1
percent75: inf num IPs: 1
percent80: inf num IPs: 1
percent85: inf num IPs: 1
percent90: inf num IPs: 1
Critical_ROB_Stalls_Percent_0_Bucket_0: 707
Non-critical_ROB_Stalls_Percent_0_Bucket_0: 483537
Critical_ROB_Stalls_Percent_0_Bucket_1: 3637
Non-critical_ROB_Stalls_Percent_0_Bucket_1: 603001
Critical_ROB_Stalls_Percent_0_Bucket_2: 13439
Non-critical_ROB_Stalls_Percent_0_Bucket_2: 441326
Critical_ROB_Stalls_Percent_0_Bucket_3: 19934
Non-critical_ROB_Stalls_Percent_0_Bucket_3: 256680
Critical_ROB_Stalls_Percent_0_Bucket_4: 17062
Non-critical_ROB_Stalls_Percent_0_Bucket_4: 149941
Critical_ROB_Stalls_Percent_0_Bucket_5: 15186
Non-critical_ROB_Stalls_Percent_0_Bucket_5: 136082
Critical_ROB_Stalls_Percent_0_Bucket_6: 217220
Non-critical_ROB_Stalls_Percent_0_Bucket_6: 867801
Critical_ROB_Stalls_Percent_1_Bucket_0: 707
Non-critical_ROB_Stalls_Percent_1_Bucket_0: 483537
Critical_ROB_Stalls_Percent_1_Bucket_1: 3637
Non-critical_ROB_Stalls_Percent_1_Bucket_1: 603001
Critical_ROB_Stalls_Percent_1_Bucket_2: 13439
Non-critical_ROB_Stalls_Percent_1_Bucket_2: 441326
Critical_ROB_Stalls_Percent_1_Bucket_3: 19934
Non-critical_ROB_Stalls_Percent_1_Bucket_3: 256680
Critical_ROB_Stalls_Percent_1_Bucket_4: 17062
Non-critical_ROB_Stalls_Percent_1_Bucket_4: 149941
Critical_ROB_Stalls_Percent_1_Bucket_5: 15186
Non-critical_ROB_Stalls_Percent_1_Bucket_5: 136082
Critical_ROB_Stalls_Percent_1_Bucket_6: 217220
Non-critical_ROB_Stalls_Percent_1_Bucket_6: 867801
Critical_ROB_Stalls_Percent_2_Bucket_0: 707
Non-critical_ROB_Stalls_Percent_2_Bucket_0: 483537
Critical_ROB_Stalls_Percent_2_Bucket_1: 3637
Non-critical_ROB_Stalls_Percent_2_Bucket_1: 603001
Critical_ROB_Stalls_Percent_2_Bucket_2: 13439
Non-critical_ROB_Stalls_Percent_2_Bucket_2: 441326
Critical_ROB_Stalls_Percent_2_Bucket_3: 19934
Non-critical_ROB_Stalls_Percent_2_Bucket_3: 256680
Critical_ROB_Stalls_Percent_2_Bucket_4: 17062
Non-critical_ROB_Stalls_Percent_2_Bucket_4: 149941
Critical_ROB_Stalls_Percent_2_Bucket_5: 15186
Non-critical_ROB_Stalls_Percent_2_Bucket_5: 136082
Critical_ROB_Stalls_Percent_2_Bucket_6: 217220
Non-critical_ROB_Stalls_Percent_2_Bucket_6: 867801
Critical_ROB_Stalls_Percent_3_Bucket_0: 707
Non-critical_ROB_Stalls_Percent_3_Bucket_0: 483537
Critical_ROB_Stalls_Percent_3_Bucket_1: 3637
Non-critical_ROB_Stalls_Percent_3_Bucket_1: 603001
Critical_ROB_Stalls_Percent_3_Bucket_2: 13439
Non-critical_ROB_Stalls_Percent_3_Bucket_2: 441326
Critical_ROB_Stalls_Percent_3_Bucket_3: 19934
Non-critical_ROB_Stalls_Percent_3_Bucket_3: 256680
Critical_ROB_Stalls_Percent_3_Bucket_4: 17062
Non-critical_ROB_Stalls_Percent_3_Bucket_4: 149941
Critical_ROB_Stalls_Percent_3_Bucket_5: 15186
Non-critical_ROB_Stalls_Percent_3_Bucket_5: 136082
Critical_ROB_Stalls_Percent_3_Bucket_6: 217220
Non-critical_ROB_Stalls_Percent_3_Bucket_6: 867801
Critical_ROB_Stalls_Percent_4_Bucket_0: 707
Non-critical_ROB_Stalls_Percent_4_Bucket_0: 483537
Critical_ROB_Stalls_Percent_4_Bucket_1: 3637
Non-critical_ROB_Stalls_Percent_4_Bucket_1: 603001
Critical_ROB_Stalls_Percent_4_Bucket_2: 13439
Non-critical_ROB_Stalls_Percent_4_Bucket_2: 441326
Critical_ROB_Stalls_Percent_4_Bucket_3: 19934
Non-critical_ROB_Stalls_Percent_4_Bucket_3: 256680
Critical_ROB_Stalls_Percent_4_Bucket_4: 17062
Non-critical_ROB_Stalls_Percent_4_Bucket_4: 149941
Critical_ROB_Stalls_Percent_4_Bucket_5: 15186
Non-critical_ROB_Stalls_Percent_4_Bucket_5: 136082
Critical_ROB_Stalls_Percent_4_Bucket_6: 217220
Non-critical_ROB_Stalls_Percent_4_Bucket_6: 867801
Critical_ROB_Stalls_Percent_5_Bucket_0: 707
Non-critical_ROB_Stalls_Percent_5_Bucket_0: 483537
Critical_ROB_Stalls_Percent_5_Bucket_1: 3637
Non-critical_ROB_Stalls_Percent_5_Bucket_1: 603001
Critical_ROB_Stalls_Percent_5_Bucket_2: 13439
Non-critical_ROB_Stalls_Percent_5_Bucket_2: 441326
Critical_ROB_Stalls_Percent_5_Bucket_3: 19934
Non-critical_ROB_Stalls_Percent_5_Bucket_3: 256680
Critical_ROB_Stalls_Percent_5_Bucket_4: 17062
Non-critical_ROB_Stalls_Percent_5_Bucket_4: 149941
Critical_ROB_Stalls_Percent_5_Bucket_5: 15186
Non-critical_ROB_Stalls_Percent_5_Bucket_5: 136082
Critical_ROB_Stalls_Percent_5_Bucket_6: 217220
Non-critical_ROB_Stalls_Percent_5_Bucket_6: 867801
Critical_ROB_Stalls_Percent_6_Bucket_0: 707
Non-critical_ROB_Stalls_Percent_6_Bucket_0: 483537
Critical_ROB_Stalls_Percent_6_Bucket_1: 3637
Non-critical_ROB_Stalls_Percent_6_Bucket_1: 603001
Critical_ROB_Stalls_Percent_6_Bucket_2: 13439
Non-critical_ROB_Stalls_Percent_6_Bucket_2: 441326
Critical_ROB_Stalls_Percent_6_Bucket_3: 19934
Non-critical_ROB_Stalls_Percent_6_Bucket_3: 256680
Critical_ROB_Stalls_Percent_6_Bucket_4: 17062
Non-critical_ROB_Stalls_Percent_6_Bucket_4: 149941
Critical_ROB_Stalls_Percent_6_Bucket_5: 15186
Non-critical_ROB_Stalls_Percent_6_Bucket_5: 136082
Critical_ROB_Stalls_Percent_6_Bucket_6: 217220
Non-critical_ROB_Stalls_Percent_6_Bucket_6: 867801
Critical_ROB_Stalls_Percent_7_Bucket_0: 707
Non-critical_ROB_Stalls_Percent_7_Bucket_0: 483537
Critical_ROB_Stalls_Percent_7_Bucket_1: 3637
Non-critical_ROB_Stalls_Percent_7_Bucket_1: 603001
Critical_ROB_Stalls_Percent_7_Bucket_2: 13439
Non-critical_ROB_Stalls_Percent_7_Bucket_2: 441326
Critical_ROB_Stalls_Percent_7_Bucket_3: 19934
Non-critical_ROB_Stalls_Percent_7_Bucket_3: 256680
Critical_ROB_Stalls_Percent_7_Bucket_4: 17062
Non-critical_ROB_Stalls_Percent_7_Bucket_4: 149941
Critical_ROB_Stalls_Percent_7_Bucket_5: 15186
Non-critical_ROB_Stalls_Percent_7_Bucket_5: 136082
Critical_ROB_Stalls_Percent_7_Bucket_6: 217220
Non-critical_ROB_Stalls_Percent_7_Bucket_6: 867801
Critical_ROB_Stalls_Percent_8_Bucket_0: 707
Non-critical_ROB_Stalls_Percent_8_Bucket_0: 483537
Critical_ROB_Stalls_Percent_8_Bucket_1: 3637
Non-critical_ROB_Stalls_Percent_8_Bucket_1: 603001
Critical_ROB_Stalls_Percent_8_Bucket_2: 13439
Non-critical_ROB_Stalls_Percent_8_Bucket_2: 441326
Critical_ROB_Stalls_Percent_8_Bucket_3: 19934
Non-critical_ROB_Stalls_Percent_8_Bucket_3: 256680
Critical_ROB_Stalls_Percent_8_Bucket_4: 17062
Non-critical_ROB_Stalls_Percent_8_Bucket_4: 149941
Critical_ROB_Stalls_Percent_8_Bucket_5: 15186
Non-critical_ROB_Stalls_Percent_8_Bucket_5: 136082
Critical_ROB_Stalls_Percent_8_Bucket_6: 217220
Non-critical_ROB_Stalls_Percent_8_Bucket_6: 867801
Average ROB occupancy Load Stall Begin: 183.826
Average ROB occupancy Load Stall End: 192.451
Min ROB occupancy Load Stall Begin: 1
Max ROB occupancy Load Stall Begin: 352
Min ROB occupancy Load Stall End: 1
Max ROB occupancy Load Stall End: 352
Average ROB occupancy Critical Load Stall Begin: -nan
Average ROB occupancy Critical Load Stall End: -nan
Min ROB occupancy Critical Load Stall Begin: 400
Max ROB occupancy Critical Load Stall Begin: 0
Min ROB occupancy Critical Load Stall End: 400
Max ROB occupancy Critical Load Stall End: 0
 ROB Load Stall Begin Bucket Count 0: 687303
 ROB Load Stall End Bucket Count 0: 484244
 ROB Critical Load Stall Begin Bucket Count 0: 0
 ROB Critical Load Stall End Bucket Count 0: 0
 ROB Load Stall Begin Bucket Count 1: 544862
 ROB Load Stall End Bucket Count 1: 606638
 ROB Critical Load Stall Begin Bucket Count 1: 0
 ROB Critical Load Stall End Bucket Count 1: 0
 ROB Load Stall Begin Bucket Count 2: 401211
 ROB Load Stall End Bucket Count 2: 454765
 ROB Critical Load Stall Begin Bucket Count 2: 0
 ROB Critical Load Stall End Bucket Count 2: 0
 ROB Load Stall Begin Bucket Count 3: 229426
 ROB Load Stall End Bucket Count 3: 276614
 ROB Critical Load Stall Begin Bucket Count 3: 0
 ROB Critical Load Stall End Bucket Count 3: 0
 ROB Load Stall Begin Bucket Count 4: 155010
 ROB Load Stall End Bucket Count 4: 167003
 ROB Critical Load Stall Begin Bucket Count 4: 0
 ROB Critical Load Stall End Bucket Count 4: 0
 ROB Load Stall Begin Bucket Count 5: 152572
 ROB Load Stall End Bucket Count 5: 151268
 ROB Critical Load Stall Begin Bucket Count 5: 0
 ROB Critical Load Stall End Bucket Count 5: 0
 ROB Load Stall Begin Bucket Count 6: 1055169
 ROB Load Stall End Bucket Count 6: 1085021
 ROB Critical Load Stall Begin Bucket Count 6: 0
 ROB Critical Load Stall End Bucket Count 6: 0
PIST Tag Read Accesses: 0
PIST Read Accesses: 0
PIST Tag Write Accesses: 0
PIST Write Accesses: 0
Criticality detector called times: 0
Max global_stall_cycles_count: 0
Threshold Modified: 0 times, factor: 0
ITLB TOTAL     ACCESS:   10289686  HIT:    9811585  MISS:     478101  HIT %:    95.3536  MISS %:    4.64641   MPKI: 9.56202
ITLB LOAD TRANSLATION ACCESS:    8379253  HIT:    8369492  MISS:       9761  HIT %:    99.8835  MISS %:    0.11649   MPKI: 0.19522
ITLB TRANSLATION FROM L1D PREFETCHER ACCESS:    1910433  HIT:    1442093  MISS:     468340  HIT %:    75.4851  MISS %:    24.5149   MPKI: 9.3668
ITLB PREFETCH  REQUESTED:          0  ISSUED:          0  USEFUL:     415500  USELESS:      52838
ITLB USEFUL LOAD PREFETCHES:     415500 PREFETCH ISSUED TO LOWER LEVEL:          0  ACCURACY: inf
ITLB TIMELY PREFETCHES:     415500 LATE PREFETCHES: 278 DROPPED PREFETCHES: 0
ITLB PREFETCHES SAME FILL-ORIGIN LEVEL: 0 DIFFERENT FILL-ORIGIN LEVEL: 0
ITLB AVERAGE MISS LATENCY: 38112.1 cycles
ITLB RQ	ACCESS:   14693583	FORWARD:          0	MERGED:    4357952	TO_CACHE:   10335631

DTLB TOTAL     ACCESS:   10805672  HIT:   10382449  MISS:     423223  HIT %:    96.0833  MISS %:    3.91667   MPKI: 8.46446
DTLB LOAD TRANSLATION ACCESS:   10805672  HIT:   10382449  MISS:     423223  HIT %:    96.0833  MISS %:    3.91667   MPKI: 8.46446
DTLB PREFETCH  REQUESTED:          0  ISSUED:          0  USEFUL:          0  USELESS:          0
DTLB USEFUL LOAD PREFETCHES:          0 PREFETCH ISSUED TO LOWER LEVEL:          0  ACCURACY: -nan
DTLB TIMELY PREFETCHES:          0 LATE PREFETCHES: 0 DROPPED PREFETCHES: 0
DTLB PREFETCHES SAME FILL-ORIGIN LEVEL: 0 DIFFERENT FILL-ORIGIN LEVEL: 0
DTLB AVERAGE MISS LATENCY: 19.9766 cycles
DTLB RQ	ACCESS:   16050274	FORWARD:          0	MERGED:    5159754	TO_CACHE:   10890520

STLB TOTAL     ACCESS:    1502982  HIT:    1467117  MISS:      35865  HIT %:    97.6137  MISS %:    2.38626   MPKI: 0.7173
STLB LOAD TRANSLATION ACCESS:     432705  HIT:     397441  MISS:      35264  HIT %:    91.8503  MISS %:    8.14966   MPKI: 0.70528
STLB TRANSLATION FROM L1D PREFETCHER ACCESS:    1070277  HIT:    1069676  MISS:        601  HIT %:    99.9438  MISS %:  0.0561537   MPKI: 0.01202
STLB PREFETCH  REQUESTED:          0  ISSUED:          0  USEFUL:        406  USELESS:        177
STLB USEFUL LOAD PREFETCHES:        406 PREFETCH ISSUED TO LOWER LEVEL:          0  ACCURACY: inf
STLB TIMELY PREFETCHES:        406 LATE PREFETCHES: 0 DROPPED PREFETCHES: 0
STLB PREFETCHES SAME FILL-ORIGIN LEVEL: 0 DIFFERENT FILL-ORIGIN LEVEL: 0
STLB AVERAGE MISS LATENCY: 134.499 cycles
STLB RQ	ACCESS:    1880646	FORWARD:          0	MERGED:     377663	TO_CACHE:    1502983

STLB Hit, L1D data hit: 0
STLB Hit, L2C data hit: 0
STLB Hit, LLC data hit: 0
STLB Hit, LLC data miss: 0
STLB STLB hints to L2: 0
L1D TOTAL     ACCESS:   14444809  HIT:   12348492  MISS:    2096317  HIT %:    85.4874  MISS %:    14.5126   MPKI: 41.9263
L1D LOAD      ACCESS:    7366011  HIT:    6805537  MISS:     560474  HIT %:    92.3911  MISS %:    7.60892   MPKI: 11.2095
L1D RFO       ACCESS:    6125763  HIT:    5161470  MISS:     964293  HIT %:    84.2584  MISS %:    15.7416   MPKI: 19.2859
L1D PREFETCH  ACCESS:     953035  HIT:     381485  MISS:     571550  HIT %:    40.0284  MISS %:    59.9716   MPKI: 11.431
L1D PREFETCH  REQUESTED:    1969232  ISSUED:    1958659  USEFUL:     315882  USELESS:     255556
L1D USEFUL LOAD PREFETCHES:     315882 PREFETCH ISSUED TO LOWER LEVEL:     586974  ACCURACY: 53.8153
L1D TIMELY PREFETCHES:     315882 LATE PREFETCHES: 15406 DROPPED PREFETCHES: 0
L1D PREFETCHES SAME FILL-ORIGIN LEVEL: 586974 DIFFERENT FILL-ORIGIN LEVEL: 0
L1D AVERAGE MISS LATENCY: 411716 cycles
L1D RQ	ACCESS:   11030285	FORWARD:          0	MERGED:    3503362	TO_CACHE:    7407642
L1D WQ	ACCESS:    8736102	FORWARD:     119296	MERGED:      93470	TO_CACHE:    8642632
L1D PQ	ACCESS:     979337	FORWARD:          0	MERGED:          0	TO_CACHE:     979322

L1D UNIQUE REGIONS ACCESSED: 0
L1D REGIONS CONFLICTS: 0
L1D Cross Page Prefetch Requests: 0
L1D Same Page Prefetch Requests: 1443933
L1D ROI Sum of L1D PQ occupancy: 18225686
L1D PREFETCHES PUSHED FROM L2C: 0
L1I TOTAL     ACCESS:   14622930  HIT:   11454399  MISS:    3168531  HIT %:    78.3318  MISS %:    21.6682   MPKI: 63.3706
L1I LOAD      ACCESS:    9776686  HIT:    9759975  MISS:      16711  HIT %:    99.8291  MISS %:   0.170927   MPKI: 0.33422
L1I PREFETCH  ACCESS:    4846244  HIT:    1694424  MISS:    3151820  HIT %:    34.9637  MISS %:    65.0363   MPKI: 63.0364
L1I PREFETCH  REQUESTED:    5085781  ISSUED:    5075111  USEFUL:    2617864  USELESS:     533885
L1I USEFUL LOAD PREFETCHES:    2617864 PREFETCH ISSUED TO LOWER LEVEL:    3156921  ACCURACY: 82.9246
L1I TIMELY PREFETCHES:    2617864 LATE PREFETCHES: 5082 DROPPED PREFETCHES: 0
L1I PREFETCHES SAME FILL-ORIGIN LEVEL: 3156921 DIFFERENT FILL-ORIGIN LEVEL: 0
L1I AVERAGE MISS LATENCY: 106256 cycles
L1I RQ	ACCESS:   14073854	FORWARD:          0	MERGED:    4293252	TO_CACHE:    9780602
L1I PQ	ACCESS:    5075111	FORWARD:          0	MERGED:     162130	TO_CACHE:    4912981

BTB TOTAL     ACCESS:    5333738  HIT:    5067581  MISS:     266157  HIT %:    95.0099  MISS %:    4.99007   MPKI: 5.32314
BTB BRANCH_DIRECT_JUMP	ACCESS:     458651  HIT:     456812  MISS:       1839
BTB BRANCH_INDIRECT	ACCESS:      48282  HIT:      48106  MISS:        176
BTB BRANCH_CONDITIONAL	ACCESS:    3005654  HIT:    2999755  MISS:       5899
BTB BRANCH_DIRECT_CALL	ACCESS:     744228  HIT:     740447  MISS:       3781
BTB BRANCH_INDIRECT_CALL	ACCESS:     166336  HIT:     137435  MISS:      28901
BTB BRANCH_RETURN	ACCESS:     910587  HIT:     685026  MISS:     225561
BTB BRANCH_OTHER ACCESS:          0  HIT:          0  MISS:          0

L2C TOTAL     ACCESS:    6469986  HIT:    4508894  MISS:    1961092  HIT %:    69.6894  MISS %:    30.3106   MPKI: 39.2218
L2C LOAD      ACCESS:     556686  HIT:     204974  MISS:     351712  HIT %:    36.8204  MISS %:    63.1796   MPKI: 7.03424
L2C DATA LOAD MPKI: 6.9383
L2C INSTRUCTION LOAD MPKI: 0.09594
L2C RFO       ACCESS:     964262  HIT:      33519  MISS:     930743  HIT %:    3.47613  MISS %:    96.5239   MPKI: 18.6149
L2C PREFETCH  ACCESS:    3743872  HIT:    3128775  MISS:     615097  HIT %:    83.5706  MISS %:    16.4294   MPKI: 12.3019
L2C DATA PREFETCH MPKI: 9.15162
L2C INSTRUCTION PREFETCH MPKI: 3.15032
L2C WRITEBACK ACCESS:    1161815  HIT:    1124747  MISS:      37068  HIT %:    96.8095  MISS %:    3.19053   MPKI: 0.74136
L2C LOAD TRANSLATION ACCESS:      42424  HIT:      16654  MISS:      25770  HIT %:    39.2561  MISS %:    60.7439   MPKI: 0.5154
L2C TRANSLATION FROM L1D PREFETCHER ACCESS:        927  HIT:        225  MISS:        702  HIT %:    24.2718  MISS %:    75.7282   MPKI: 0.01404
L2C PREFETCH  REQUESTED:          0  ISSUED:          0  USEFUL:       6985  USELESS:     608806
L2C USEFUL LOAD PREFETCHES:       6985 PREFETCH ISSUED TO LOWER LEVEL:     615097  ACCURACY: 1.13559
L2C TIMELY PREFETCHES:       6985 LATE PREFETCHES: 0 DROPPED PREFETCHES: 0
L2C PREFETCHES SAME FILL-ORIGIN LEVEL: 0 DIFFERENT FILL-ORIGIN LEVEL: 0
L2C AVERAGE MISS LATENCY: 174.105 cycles
L2C RQ	ACCESS:    1564325	FORWARD:          0	MERGED:          0	TO_CACHE:    1564299
L2C WQ	ACCESS:    1161816	FORWARD:         27	MERGED:          0	TO_CACHE:    1161816
L2C PQ	ACCESS:    3743870	FORWARD:          0	MERGED:          0	TO_CACHE:    3743869

L2C Instructions Evicting Data 146171
L2C Translations Evicting Data 24003
L2C Data Evicting Data 1567768
L2C Instructions Evicting Instructions 13858
L2C Translations Evicting Instructions 2167
L2C Data Evicting Instructions 143941
L2C Instructions Evicting Translations 2284
L2C Translations Evicting Translations 302
L2C Data Evicting Translations 23530
L2C Dense regions hint from L2: 0
PSCL5 TOTAL     ACCESS:      35865  HIT:      35865  MISS:          0  HIT %:        100  MISS %:          0   MPKI: 0
PSCL5 LOAD TRANSLATION ACCESS:      35264  HIT:      35264  MISS:          0  HIT %:        100  MISS %:          0   MPKI: 0
PSCL5 TRANSLATION FROM L1D PREFETCHER ACCESS:        601  HIT:        601  MISS:          0  HIT %:        100  MISS %:          0   MPKI: 0
PSCL5 PREFETCH  REQUESTED:          0  ISSUED:          0  USEFUL:          0  USELESS:          0
PSCL5 USEFUL LOAD PREFETCHES:          0 PREFETCH ISSUED TO LOWER LEVEL:          0  ACCURACY: -nan
PSCL5 TIMELY PREFETCHES:          0 LATE PREFETCHES: 0 DROPPED PREFETCHES: 0
PSCL5 PREFETCHES SAME FILL-ORIGIN LEVEL: 0 DIFFERENT FILL-ORIGIN LEVEL: 0

PSCL4 TOTAL     ACCESS:      33478  HIT:      33378  MISS:        100  HIT %:    99.7013  MISS %:   0.298704   MPKI: 0.002
PSCL4 LOAD TRANSLATION ACCESS:      32909  HIT:      32809  MISS:        100  HIT %:    99.6961  MISS %:   0.303868   MPKI: 0.002
PSCL4 TRANSLATION FROM L1D PREFETCHER ACCESS:        569  HIT:        569  MISS:          0  HIT %:        100  MISS %:          0   MPKI: 0
PSCL4 PREFETCH  REQUESTED:          0  ISSUED:          0  USEFUL:          0  USELESS:          0
PSCL4 USEFUL LOAD PREFETCHES:          0 PREFETCH ISSUED TO LOWER LEVEL:          0  ACCURACY: -nan
PSCL4 TIMELY PREFETCHES:          0 LATE PREFETCHES: 0 DROPPED PREFETCHES: 0
PSCL4 PREFETCHES SAME FILL-ORIGIN LEVEL: 0 DIFFERENT FILL-ORIGIN LEVEL: 0

PSCL3 TOTAL     ACCESS:      35843  HIT:      35743  MISS:        100  HIT %:     99.721  MISS %:   0.278995   MPKI: 0.002
PSCL3 LOAD TRANSLATION ACCESS:      35274  HIT:      35174  MISS:        100  HIT %:    99.7165  MISS %:   0.283495   MPKI: 0.002
PSCL3 TRANSLATION FROM L1D PREFETCHER ACCESS:        569  HIT:        569  MISS:          0  HIT %:        100  MISS %:          0   MPKI: 0
PSCL3 PREFETCH  REQUESTED:          0  ISSUED:          0  USEFUL:          0  USELESS:          0
PSCL3 USEFUL LOAD PREFETCHES:          0 PREFETCH ISSUED TO LOWER LEVEL:          0  ACCURACY: -nan
PSCL3 TIMELY PREFETCHES:          0 LATE PREFETCHES: 0 DROPPED PREFETCHES: 0
PSCL3 PREFETCHES SAME FILL-ORIGIN LEVEL: 0 DIFFERENT FILL-ORIGIN LEVEL: 0

PSCL2 TOTAL     ACCESS:      35865  HIT:      28552  MISS:       7313  HIT %:    79.6096  MISS %:    20.3904   MPKI: 0.14626
PSCL2 LOAD TRANSLATION ACCESS:      35540  HIT:      28227  MISS:       7313  HIT %:    79.4232  MISS %:    20.5768   MPKI: 0.14626
PSCL2 TRANSLATION FROM L1D PREFETCHER ACCESS:        325  HIT:        325  MISS:          0  HIT %:        100  MISS %:          0   MPKI: 0
PSCL2 PREFETCH  REQUESTED:          0  ISSUED:          0  USEFUL:          0  USELESS:          0
PSCL2 USEFUL LOAD PREFETCHES:          0 PREFETCH ISSUED TO LOWER LEVEL:          0  ACCURACY: -nan
PSCL2 TIMELY PREFETCHES:          0 LATE PREFETCHES: 0 DROPPED PREFETCHES: 0
PSCL2 PREFETCHES SAME FILL-ORIGIN LEVEL: 0 DIFFERENT FILL-ORIGIN LEVEL: 0

LLC TOTAL     ACCESS:    3006847  HIT:    1477545  MISS:    1529302  HIT %:    49.1393  MISS %:    50.8607   MPKI: 30.586
LLC LOAD      ACCESS:     351712  HIT:     266652  MISS:      85060  HIT %:    75.8154  MISS %:    24.1846   MPKI: 1.7012
LLC RFO       ACCESS:     930739  HIT:     202291  MISS:     728448  HIT %:    21.7344  MISS %:    78.2656   MPKI: 14.569
LLC PREFETCH  ACCESS:     615097  HIT:     228910  MISS:     386187  HIT %:    37.2153  MISS %:    62.7847   MPKI: 7.72374
LLC WRITEBACK ACCESS:    1082827  HIT:     762274  MISS:     320553  HIT %:    70.3967  MISS %:    29.6033   MPKI: 6.41106
LLC LOAD TRANSLATION ACCESS:      25770  HIT:      17124  MISS:       8646  HIT %:    66.4494  MISS %:    33.5506   MPKI: 0.17292
LLC TRANSLATION FROM L1D PREFETCHER ACCESS:        702  HIT:        294  MISS:        408  HIT %:    41.8803  MISS %:    58.1197   MPKI: 0.00816
LLC PREFETCH  REQUESTED:          0  ISSUED:          0  USEFUL:       3673  USELESS:     386318
LLC USEFUL LOAD PREFETCHES:       3673 PREFETCH ISSUED TO LOWER LEVEL:     386187  ACCURACY: 0.951094
LLC TIMELY PREFETCHES:       3673 LATE PREFETCHES: 0 DROPPED PREFETCHES: 0
LLC PREFETCHES SAME FILL-ORIGIN LEVEL: 0 DIFFERENT FILL-ORIGIN LEVEL: 0
LLC AVERAGE MISS LATENCY: 183.883 cycles
LLC RQ	ACCESS:    1308927	FORWARD:          0	MERGED:          0	TO_CACHE:    1308923
LLC WQ	ACCESS:    1082828	FORWARD:          4	MERGED:          0	TO_CACHE:    1082828
LLC PQ	ACCESS:     615097	FORWARD:          0	MERGED:          0	TO_CACHE:     615097

LLC Dense regions hint to LLC: 0

RAW hits: 1368266
Loads Generated: 12398552
Loads sent to L1D: 11030285
Stores Generated: 8736102
Stores sent to L1D: 8736102
Major fault: 0 Minor fault: 22612
Allocated PAGES: 22612
I-Shadow cache 408 bytes
Touched + WorthPF tables 6144 bytes 
MMA filter 174 bytes 
FNL filter 272 bytes 
TOTAL PREFETCHER STORAGE SIZE: 25174 bytes
CPU 0 L1I next line prefetcher final stats

stream: 
stream:times selected: 1885638
stream:pref_filled: 830650
stream:pref_useful: 515371
stream:pref_late: 15383
stream:misses: 7435
stream:misses_by_poll: 0

CS: 
CS:times selected: 1525443
CS:pref_filled: 4159
CS:pref_useful: 3914
CS:pref_late: 928
CS:misses: 16162
CS:misses_by_poll: 14

CPLX: 
CPLX:times selected: 358067
CPLX:pref_filled: 60064
CPLX:pref_useful: 29063
CPLX:pref_late: 193
CPLX:misses: 27458
CPLX:misses_by_poll: 89

NL_L1: 
NL:times selected: 499
NL:pref_filled: 235
NL:pref_useful: 80
NL:pref_late: 18
NL:misses: 169
NL:misses_by_poll: 0

total selections: 3769647
total_filled: 571550
total_useful: 315882
total_late: 17083
total_polluted: 103
total_misses_after_warmup: 84301
conflicts: 127221
Degree Incremented Times: 11972
Degree Decremented Times: 0

L1 IP Table Write Accesses: 1854460
L1 IP Table Read Accesses: 1727239
L1 RST Write Accesses: 1527724
L1 RST Read Accesses: 3055448
L1 CSPT Write Accesses: 1527724
L1 CSPT Read Accesses: 1826198
L1 RR Filter Tag Write Accesses: 989910
L1 RR Filter Tag Read Accesses: 381679045
L1 IP Table Tag Write Accesses: 2029824
L1 IP Table Tag Read Accesses: 2029824
L1 RST Tag Write Accesses: 0
L1 RST Tag Read Accesses: 13840942
L1 RR Filter Write Accesses: 0
L1 RR Filter Read Accesses: 13072976
test: 115888

DRAM Statistics
 CHANNEL 0
 RQ ROW_BUFFER_HIT:     459088  ROW_BUFFER_MISS:     749516
 DBUS_CONGESTED:        441
 WQ ROW_BUFFER_HIT:     171685  ROW_BUFFER_MISS:     602933  FULL:       5871

 AVG_CONGESTED_CYCLE: 3
 All warmup complete: 2
Channel 0 Bank busy for read cycles: 0
Channel 0 Bank busy for write cycles: 0
Channel 0
Rank 0
0banks busy for read cycles: 25713511
0banks busy for write cycles: 43192
1banks busy for read cycles: 14193645
1banks busy for write cycles: 6224920
2banks busy for read cycles: 9192407
2banks busy for write cycles: 2785719
3banks busy for read cycles: 4328126
3banks busy for write cycles: 1593953
4banks busy for read cycles: 3892161
4banks busy for write cycles: 1232466
5banks busy for read cycles: 2044246
5banks busy for write cycles: 1140255
6banks busy for read cycles: 2026926
6banks busy for write cycles: 1167869
7banks busy for read cycles: 2069266
7banks busy for write cycles: 2057188
8banks busy for read cycles: 5015146
8banks busy for write cycles: 11213504

CPU 0 Branch Prediction Accuracy: 99.7114% MPKI: 0.47678 Average ROB Occupancy at Mispredict: 92.5231
Branch types
NOT_BRANCH: 41740729 83.4815%
BRANCH_DIRECT_JUMP: 458651 0.917302%
BRANCH_INDIRECT: 48282 0.096564%
BRANCH_CONDITIONAL: 5930847 11.8617%
BRANCH_DIRECT_CALL: 744228 1.48846%
BRANCH_INDIRECT_CALL: 166336 0.332672%
BRANCH_RETURN: 910587 1.82117%
BRANCH_OTHER: 0 0%

DRAM PAGES: 1048576
Allocated PAGES: 22612
