
*** ChampSim Multicore Out-of-Order Simulator ***

Warmup Instructions: 50000000
Simulation Instructions: 50000000
Number of CPUs: 1
LLC sets: 2048
LLC ways: 16
Off-chip DRAM Size: 4096 MB Channels: 1 Width: 64-bit Data Rate: 6400 MT/s
CPU 0 runs ../IPC-traces//server_034.champsimtrace.xz
.xz
NUM_OF_IPS_IN_CRITICAL_IP_TRAINING: 64
NUM_OF_CRITICAL_IP_TRAINING_TABLE_WAYS: 2
NUM_OF_CRITICAL_IP_TRAINING_TABLE_SETS: 32
WOBBLY_CRITICAL_IP_CACHE_SETS: 32
WOBBLY_CRITICAL_IP_CACHE_WAYS: 4
BTB has LRU replacement policy
ITLB has LRU replacement policy
DTLB has LRU replacement policy
STLB has LRU replacement policy
CPU 0 L1I next line prefetcher
L1I has LRU replacement policy
IP Table Entries: 256
L1D has LRU replacement policy
Initialize SRRIP state for L2C
Initialize DRRIP state for LLC
Heartbeat CPU 0 instructions: 10000000 cycles: 2757786 heartbeat IPC: 3.6261 cumulative IPC: 3.6261 (Simulation time: 0 hr 3 min 28 sec) 
Heartbeat CPU 0 instructions: 20000000 cycles: 5509786 heartbeat IPC: 3.63372 cumulative IPC: 3.6299 (Simulation time: 0 hr 6 min 18 sec) 
Heartbeat CPU 0 instructions: 30000003 cycles: 8262148 heartbeat IPC: 3.63324 cumulative IPC: 3.63102 (Simulation time: 0 hr 8 min 42 sec) 
Heartbeat CPU 0 instructions: 40000001 cycles: 11014938 heartbeat IPC: 3.63268 cumulative IPC: 3.63143 (Simulation time: 0 hr 10 min 55 sec) 
Heartbeat CPU 0 instructions: 50000002 cycles: 13768170 heartbeat IPC: 3.6321 cumulative IPC: 3.63156 (Simulation time: 0 hr 13 min 1 sec) 

Warmup complete CPU 0 instructions: 50000002 cycles: 13768170 (Simulation time: 0 hr 13 min 1 sec) 

Heartbeat CPU 0 instructions: 60000002 cycles: 26327707 heartbeat IPC: 0.796208 cumulative IPC: 0.796208 (Simulation time: 0 hr 15 min 23 sec) 
Heartbeat CPU 0 instructions: 70000003 cycles: 38893461 heartbeat IPC: 0.795814 cumulative IPC: 0.796011 (Simulation time: 0 hr 17 min 44 sec) 
Heartbeat CPU 0 instructions: 80000001 cycles: 51420783 heartbeat IPC: 0.798255 cumulative IPC: 0.796757 (Simulation time: 0 hr 19 min 59 sec) 
Heartbeat CPU 0 instructions: 90000002 cycles: 63945704 heartbeat IPC: 0.798408 cumulative IPC: 0.79717 (Simulation time: 0 hr 22 min 11 sec) 
Heartbeat CPU 0 instructions: 100000003 cycles: 76522271 heartbeat IPC: 0.79513 cumulative IPC: 0.796761 (Simulation time: 0 hr 24 min 6 sec) 
Finished CPU 0 instructions: 50000001 cycles: 62754101 cumulative IPC: 0.796761 (Simulation time: 0 hr 24 min 6 sec) 

ChampSim completed all CPUs

Region of Interest Statistics

CPU 0 cumulative IPC: 0.796761 instructions: 50000001 cycles: 62754101

CPU 0 Average Load ROB stall cycles: 1.64583e+07
CPU 0 Fraction of times ROB stalled by Loads: 36.4514
CPU 0 Percentage of Load stall cycles in Total stall cycles: 2.52556e+08
Issued all: 26266185
Issued LT all: 20482960
rob_not_full_when_issued_lt_all: 20215528
Issued LT one: 15403923
rob_not_full_when_issued_lt_one: 15177320
 Total stall cycles: 50821151
 Total load stall cycles: 128352063409363
CPU 0 NUM of IPS identified critical: 0
CPU 0 Num of Load IPs stalling ROB: 6888
Threshold modification factor: 0
Max PIST entries: 64
Min PIST entries: 0
Avg PIST entries: 32
Trouble in retire width: 0.861171
MaC = Marked as critical.
lt_50_percent_before_Mac: 0
gt_90_percent_before_Mac: 0
gt_75_percent_before_Mac: 0
gt_50_percent_before_Mac: 0
stall_proportion_bin_same_before_after: 0
stall_proportion_bin_lower_before_after: 0
stall_proportion_bin_upper_before_after: 0
average_stall_proportion_before: -nan
average_stall_proportion_after: -nan
Critical IP stalls, total frequency: 0
Non-critical IP stalls, total frequency: 2842708
Total Freq all stalling IPs: 2842708
stat_90_percent_critical_ip_stalls_freq: 2558726
stat_90_percent_non_critical_ip_stalls_freq: 283982
Critical_IP_ROB_Stalls_Bucket_0: 0
Non-critical_IP_ROB_Stalls_Bucket_0: 1617538
Critical_IP_ROB_Stalls_Bucket_1: 0
Non-critical_IP_ROB_Stalls_Bucket_1: 869830
Critical_IP_ROB_Stalls_Bucket_2: 0
Non-critical_IP_ROB_Stalls_Bucket_2: 267473
Critical_IP_ROB_Stalls_Bucket_3: 0
Non-critical_IP_ROB_Stalls_Bucket_3: 61401
Critical_IP_ROB_Stalls_Bucket_4: 0
Non-critical_IP_ROB_Stalls_Bucket_4: 7476
Critical_IP_ROB_Stalls_Bucket_5: 0
Non-critical_IP_ROB_Stalls_Bucket_5: 3634
Critical_IP_ROB_Stalls_Bucket_6: 0
Non-critical_IP_ROB_Stalls_Bucket_6: 15356
0 => IPs accounting for >50 percent of stalls, 1 => 55, 2 => 60, 3 => 65 and so on till 90.
percent50: 50.0165 num IPs:  361
percent55: 55.0118 num IPs: 463
percent60: 60.0466 num IPs: 566
percent65: 65.0268 num IPs: 668
percent70: 70.0188 num IPs: 771
percent75: 75.0377 num IPs: 877
percent80: 80.0329 num IPs: 987
percent85: 85.005 num IPs: 1107
percent90: 90.0103 num IPs: 1256
Critical_ROB_Stalls_Percent_0_Bucket_0: 838699
Non-critical_ROB_Stalls_Percent_0_Bucket_0: 778839
Critical_ROB_Stalls_Percent_0_Bucket_1: 421680
Non-critical_ROB_Stalls_Percent_0_Bucket_1: 448150
Critical_ROB_Stalls_Percent_0_Bucket_2: 127771
Non-critical_ROB_Stalls_Percent_0_Bucket_2: 139702
Critical_ROB_Stalls_Percent_0_Bucket_3: 21515
Non-critical_ROB_Stalls_Percent_0_Bucket_3: 39886
Critical_ROB_Stalls_Percent_0_Bucket_4: 3505
Non-critical_ROB_Stalls_Percent_0_Bucket_4: 3971
Critical_ROB_Stalls_Percent_0_Bucket_5: 1020
Non-critical_ROB_Stalls_Percent_0_Bucket_5: 2614
Critical_ROB_Stalls_Percent_0_Bucket_6: 7635
Non-critical_ROB_Stalls_Percent_0_Bucket_6: 7721
Critical_ROB_Stalls_Percent_1_Bucket_0: 892524
Non-critical_ROB_Stalls_Percent_1_Bucket_0: 725014
Critical_ROB_Stalls_Percent_1_Bucket_1: 486315
Non-critical_ROB_Stalls_Percent_1_Bucket_1: 383515
Critical_ROB_Stalls_Percent_1_Bucket_2: 146895
Non-critical_ROB_Stalls_Percent_1_Bucket_2: 120578
Critical_ROB_Stalls_Percent_1_Bucket_3: 24789
Non-critical_ROB_Stalls_Percent_1_Bucket_3: 36612
Critical_ROB_Stalls_Percent_1_Bucket_4: 4476
Non-critical_ROB_Stalls_Percent_1_Bucket_4: 3000
Critical_ROB_Stalls_Percent_1_Bucket_5: 1194
Non-critical_ROB_Stalls_Percent_1_Bucket_5: 2440
Critical_ROB_Stalls_Percent_1_Bucket_6: 7635
Non-critical_ROB_Stalls_Percent_1_Bucket_6: 7721
Critical_ROB_Stalls_Percent_2_Bucket_0: 954565
Non-critical_ROB_Stalls_Percent_2_Bucket_0: 662973
Critical_ROB_Stalls_Percent_2_Bucket_1: 543887
Non-critical_ROB_Stalls_Percent_2_Bucket_1: 325943
Critical_ROB_Stalls_Percent_2_Bucket_2: 165392
Non-critical_ROB_Stalls_Percent_2_Bucket_2: 102081
Critical_ROB_Stalls_Percent_2_Bucket_3: 28365
Non-critical_ROB_Stalls_Percent_2_Bucket_3: 33036
Critical_ROB_Stalls_Percent_2_Bucket_4: 4796
Non-critical_ROB_Stalls_Percent_2_Bucket_4: 2680
Critical_ROB_Stalls_Percent_2_Bucket_5: 1387
Non-critical_ROB_Stalls_Percent_2_Bucket_5: 2247
Critical_ROB_Stalls_Percent_2_Bucket_6: 8559
Non-critical_ROB_Stalls_Percent_2_Bucket_6: 6797
Critical_ROB_Stalls_Percent_3_Bucket_0: 1002203
Non-critical_ROB_Stalls_Percent_3_Bucket_0: 615335
Critical_ROB_Stalls_Percent_3_Bucket_1: 593254
Non-critical_ROB_Stalls_Percent_3_Bucket_1: 276576
Critical_ROB_Stalls_Percent_3_Bucket_2: 197502
Non-critical_ROB_Stalls_Percent_3_Bucket_2: 69971
Critical_ROB_Stalls_Percent_3_Bucket_3: 40755
Non-critical_ROB_Stalls_Percent_3_Bucket_3: 20646
Critical_ROB_Stalls_Percent_3_Bucket_4: 4858
Non-critical_ROB_Stalls_Percent_3_Bucket_4: 2618
Critical_ROB_Stalls_Percent_3_Bucket_5: 1387
Non-critical_ROB_Stalls_Percent_3_Bucket_5: 2247
Critical_ROB_Stalls_Percent_3_Bucket_6: 8562
Non-critical_ROB_Stalls_Percent_3_Bucket_6: 6794
Critical_ROB_Stalls_Percent_4_Bucket_0: 1074906
Non-critical_ROB_Stalls_Percent_4_Bucket_0: 542632
Critical_ROB_Stalls_Percent_4_Bucket_1: 639495
Non-critical_ROB_Stalls_Percent_4_Bucket_1: 230335
Critical_ROB_Stalls_Percent_4_Bucket_2: 211046
Non-critical_ROB_Stalls_Percent_4_Bucket_2: 56427
Critical_ROB_Stalls_Percent_4_Bucket_3: 49007
Non-critical_ROB_Stalls_Percent_4_Bucket_3: 12394
Critical_ROB_Stalls_Percent_4_Bucket_4: 5020
Non-critical_ROB_Stalls_Percent_4_Bucket_4: 2456
Critical_ROB_Stalls_Percent_4_Bucket_5: 1533
Non-critical_ROB_Stalls_Percent_4_Bucket_5: 2101
Critical_ROB_Stalls_Percent_4_Bucket_6: 9421
Non-critical_ROB_Stalls_Percent_4_Bucket_6: 5935
Critical_ROB_Stalls_Percent_5_Bucket_0: 1162685
Non-critical_ROB_Stalls_Percent_5_Bucket_0: 454853
Critical_ROB_Stalls_Percent_5_Bucket_1: 679142
Non-critical_ROB_Stalls_Percent_5_Bucket_1: 190688
Critical_ROB_Stalls_Percent_5_Bucket_2: 221814
Non-critical_ROB_Stalls_Percent_5_Bucket_2: 45659
Critical_ROB_Stalls_Percent_5_Bucket_3: 53094
Non-critical_ROB_Stalls_Percent_5_Bucket_3: 8307
Critical_ROB_Stalls_Percent_5_Bucket_4: 5369
Non-critical_ROB_Stalls_Percent_5_Bucket_4: 2107
Critical_ROB_Stalls_Percent_5_Bucket_5: 1576
Non-critical_ROB_Stalls_Percent_5_Bucket_5: 2058
Critical_ROB_Stalls_Percent_5_Bucket_6: 9421
Non-critical_ROB_Stalls_Percent_5_Bucket_6: 5935
Critical_ROB_Stalls_Percent_6_Bucket_0: 1264515
Non-critical_ROB_Stalls_Percent_6_Bucket_0: 353023
Critical_ROB_Stalls_Percent_6_Bucket_1: 712502
Non-critical_ROB_Stalls_Percent_6_Bucket_1: 157328
Critical_ROB_Stalls_Percent_6_Bucket_2: 228201
Non-critical_ROB_Stalls_Percent_6_Bucket_2: 39272
Critical_ROB_Stalls_Percent_6_Bucket_3: 53440
Non-critical_ROB_Stalls_Percent_6_Bucket_3: 7961
Critical_ROB_Stalls_Percent_6_Bucket_4: 5424
Non-critical_ROB_Stalls_Percent_6_Bucket_4: 2052
Critical_ROB_Stalls_Percent_6_Bucket_5: 1595
Non-critical_ROB_Stalls_Percent_6_Bucket_5: 2039
Critical_ROB_Stalls_Percent_6_Bucket_6: 9421
Non-critical_ROB_Stalls_Percent_6_Bucket_6: 5935
Critical_ROB_Stalls_Percent_7_Bucket_0: 1357701
Non-critical_ROB_Stalls_Percent_7_Bucket_0: 259837
Critical_ROB_Stalls_Percent_7_Bucket_1: 749556
Non-critical_ROB_Stalls_Percent_7_Bucket_1: 120274
Critical_ROB_Stalls_Percent_7_Bucket_2: 236600
Non-critical_ROB_Stalls_Percent_7_Bucket_2: 30873
Critical_ROB_Stalls_Percent_7_Bucket_3: 54502
Non-critical_ROB_Stalls_Percent_7_Bucket_3: 6899
Critical_ROB_Stalls_Percent_7_Bucket_4: 5532
Non-critical_ROB_Stalls_Percent_7_Bucket_4: 1944
Critical_ROB_Stalls_Percent_7_Bucket_5: 1963
Non-critical_ROB_Stalls_Percent_7_Bucket_5: 1671
Critical_ROB_Stalls_Percent_7_Bucket_6: 10587
Non-critical_ROB_Stalls_Percent_7_Bucket_6: 4769
Critical_ROB_Stalls_Percent_8_Bucket_0: 1450292
Non-critical_ROB_Stalls_Percent_8_Bucket_0: 167246
Critical_ROB_Stalls_Percent_8_Bucket_1: 784502
Non-critical_ROB_Stalls_Percent_8_Bucket_1: 85328
Critical_ROB_Stalls_Percent_8_Bucket_2: 246580
Non-critical_ROB_Stalls_Percent_8_Bucket_2: 20893
Critical_ROB_Stalls_Percent_8_Bucket_3: 56496
Non-critical_ROB_Stalls_Percent_8_Bucket_3: 4905
Critical_ROB_Stalls_Percent_8_Bucket_4: 5988
Non-critical_ROB_Stalls_Percent_8_Bucket_4: 1488
Critical_ROB_Stalls_Percent_8_Bucket_5: 2291
Non-critical_ROB_Stalls_Percent_8_Bucket_5: 1343
Critical_ROB_Stalls_Percent_8_Bucket_6: 12577
Non-critical_ROB_Stalls_Percent_8_Bucket_6: 2779
Average ROB occupancy Load Stall Begin: 44.8504
Average ROB occupancy Load Stall End: 54.7105
Min ROB occupancy Load Stall Begin: 1
Max ROB occupancy Load Stall Begin: 352
Min ROB occupancy Load Stall End: 1
Max ROB occupancy Load Stall End: 352
Average ROB occupancy Critical Load Stall Begin: -nan
Average ROB occupancy Critical Load Stall End: -nan
Min ROB occupancy Critical Load Stall Begin: 400
Max ROB occupancy Critical Load Stall Begin: 0
Min ROB occupancy Critical Load Stall End: 400
Max ROB occupancy Critical Load Stall End: 0
 ROB Load Stall Begin Bucket Count 0: 1942202
 ROB Load Stall End Bucket Count 0: 1617538
 ROB Critical Load Stall Begin Bucket Count 0: 0
 ROB Critical Load Stall End Bucket Count 0: 0
 ROB Load Stall Begin Bucket Count 1: 654602
 ROB Load Stall End Bucket Count 1: 869830
 ROB Critical Load Stall Begin Bucket Count 1: 0
 ROB Critical Load Stall End Bucket Count 1: 0
 ROB Load Stall Begin Bucket Count 2: 182052
 ROB Load Stall End Bucket Count 2: 267473
 ROB Critical Load Stall Begin Bucket Count 2: 0
 ROB Critical Load Stall End Bucket Count 2: 0
 ROB Load Stall Begin Bucket Count 3: 40487
 ROB Load Stall End Bucket Count 3: 61401
 ROB Critical Load Stall Begin Bucket Count 3: 0
 ROB Critical Load Stall End Bucket Count 3: 0
 ROB Load Stall Begin Bucket Count 4: 5357
 ROB Load Stall End Bucket Count 4: 7476
 ROB Critical Load Stall Begin Bucket Count 4: 0
 ROB Critical Load Stall End Bucket Count 4: 0
 ROB Load Stall Begin Bucket Count 5: 4738
 ROB Load Stall End Bucket Count 5: 3634
 ROB Critical Load Stall Begin Bucket Count 5: 0
 ROB Critical Load Stall End Bucket Count 5: 0
 ROB Load Stall Begin Bucket Count 6: 13270
 ROB Load Stall End Bucket Count 6: 15356
 ROB Critical Load Stall Begin Bucket Count 6: 0
 ROB Critical Load Stall End Bucket Count 6: 0
PIST Tag Read Accesses: 2360664
PIST Read Accesses: 1180332
PIST Tag Write Accesses: 2360664
PIST Write Accesses: 1180332
Criticality detector called times: 2830300
Max global_stall_cycles_count: 2750633
Threshold Modified: 0 times, factor: 0
Sturdy critical IP cache stats: 
 Unused entries: 0
CIC Tag Read Accesses: 0
CIC Read Accesses: 0
CIC Tag Write Accesses: 0
CIC Write Accesses: 0
Wobbly critical IP cache stats: 
 Unused entries: 115
CIC Tag Read Accesses: 144025356
CIC Read Accesses: 0
CIC Tag Write Accesses: 3156
CIC Write Accesses: 0
ITLB TOTAL     ACCESS:   10543816  HIT:    9885014  MISS:     658802  HIT %:    93.7518  MISS %:    6.24823   MPKI: 13.176
ITLB LOAD TRANSLATION ACCESS:    8288384  HIT:    8263430  MISS:      24954  HIT %:    99.6989  MISS %:   0.301072   MPKI: 0.49908
ITLB TRANSLATION FROM L1D PREFETCHER ACCESS:    2255432  HIT:    1621584  MISS:     633848  HIT %:    71.8968  MISS %:    28.1032   MPKI: 12.677
ITLB PREFETCH  REQUESTED:          0  ISSUED:          0  USEFUL:     542604  USELESS:      91236
ITLB USEFUL LOAD PREFETCHES:     542604 PREFETCH ISSUED TO LOWER LEVEL:          0  ACCURACY: inf
ITLB TIMELY PREFETCHES:     542604 LATE PREFETCHES: 233 DROPPED PREFETCHES: 0
ITLB PREFETCHES SAME FILL-ORIGIN LEVEL: 0 DIFFERENT FILL-ORIGIN LEVEL: 0
ITLB AVERAGE MISS LATENCY: 18152.2 cycles
ITLB RQ	ACCESS:   15925164	FORWARD:          0	MERGED:    5343115	TO_CACHE:   10582049

DTLB TOTAL     ACCESS:    9484033  HIT:    9070363  MISS:     413670  HIT %:    95.6382  MISS %:    4.36175   MPKI: 8.2734
DTLB LOAD TRANSLATION ACCESS:    9484033  HIT:    9070363  MISS:     413670  HIT %:    95.6382  MISS %:    4.36175   MPKI: 8.2734
DTLB PREFETCH  REQUESTED:          0  ISSUED:          0  USEFUL:          0  USELESS:          0
DTLB USEFUL LOAD PREFETCHES:          0 PREFETCH ISSUED TO LOWER LEVEL:          0  ACCURACY: -nan
DTLB TIMELY PREFETCHES:          0 LATE PREFETCHES: 0 DROPPED PREFETCHES: 0
DTLB PREFETCHES SAME FILL-ORIGIN LEVEL: 0 DIFFERENT FILL-ORIGIN LEVEL: 0
DTLB AVERAGE MISS LATENCY: 9.07386 cycles
DTLB RQ	ACCESS:   13399668	FORWARD:          0	MERGED:    3899166	TO_CACHE:    9500502

STLB TOTAL     ACCESS:    1076524  HIT:    1075715  MISS:        809  HIT %:    99.9249  MISS %:  0.0751493   MPKI: 0.01618
STLB LOAD TRANSLATION ACCESS:     438391  HIT:     437850  MISS:        541  HIT %:    99.8766  MISS %:   0.123406   MPKI: 0.01082
STLB TRANSLATION FROM L1D PREFETCHER ACCESS:     638133  HIT:     637865  MISS:        268  HIT %:     99.958  MISS %:  0.0419975   MPKI: 0.00536
STLB PREFETCH  REQUESTED:          0  ISSUED:          0  USEFUL:        153  USELESS:        115
STLB USEFUL LOAD PREFETCHES:        153 PREFETCH ISSUED TO LOWER LEVEL:          0  ACCURACY: inf
STLB TIMELY PREFETCHES:        153 LATE PREFETCHES: 0 DROPPED PREFETCHES: 0
STLB PREFETCHES SAME FILL-ORIGIN LEVEL: 0 DIFFERENT FILL-ORIGIN LEVEL: 0
STLB AVERAGE MISS LATENCY: 36.6366 cycles
STLB RQ	ACCESS:    1081119	FORWARD:          0	MERGED:       4595	TO_CACHE:    1076524

STLB Hit, L1D data hit: 0
STLB Hit, L2C data hit: 0
STLB Hit, LLC data hit: 0
STLB Hit, LLC data miss: 0
STLB STLB hints to L2: 0
L1D TOTAL     ACCESS:   13290544  HIT:   12680700  MISS:     609844  HIT %:    95.4114  MISS %:    4.58856   MPKI: 12.1969
L1D LOAD      ACCESS:    7008781  HIT:    6493012  MISS:     515769  HIT %:    92.6411  MISS %:     7.3589   MPKI: 10.3154
L1D RFO       ACCESS:    6273260  HIT:    6186610  MISS:      86650  HIT %:    98.6187  MISS %:    1.38126   MPKI: 1.733
L1D PREFETCH  ACCESS:       8503  HIT:       1078  MISS:       7425  HIT %:    12.6779  MISS %:    87.3221   MPKI: 0.1485
L1D PREFETCH  REQUESTED:      17298  ISSUED:      17298  USEFUL:       2952  USELESS:       4473
L1D USEFUL LOAD PREFETCHES:       2952 PREFETCH ISSUED TO LOWER LEVEL:       7448  ACCURACY: 39.6348
L1D TIMELY PREFETCHES:       2952 LATE PREFETCHES: 23 DROPPED PREFETCHES: 0
L1D PREFETCHES SAME FILL-ORIGIN LEVEL: 7448 DIFFERENT FILL-ORIGIN LEVEL: 0
L1D AVERAGE MISS LATENCY: 1268.24 cycles
L1D RQ	ACCESS:   10533449	FORWARD:          0	MERGED:    3349213	TO_CACHE:    7025076
L1D WQ	ACCESS:    6506011	FORWARD:     159164	MERGED:     131419	TO_CACHE:    6374592
L1D PQ	ACCESS:       8651	FORWARD:          0	MERGED:          0	TO_CACHE:       8647

L1D UNIQUE REGIONS ACCESSED: 0
L1D REGIONS CONFLICTS: 0
L1D Cross Page Prefetch Requests: 0
L1D Same Page Prefetch Requests: 8651
L1D ROI Sum of L1D PQ occupancy: 114361
L1D PREFETCHES PUSHED FROM L2C: 0
L1I TOTAL     ACCESS:   15868328  HIT:   11388887  MISS:    4479441  HIT %:    71.7712  MISS %:    28.2288   MPKI: 89.5888
L1I LOAD      ACCESS:    9784042  HIT:    9753431  MISS:      30611  HIT %:    99.6871  MISS %:   0.312867   MPKI: 0.61222
L1I PREFETCH  ACCESS:    6084286  HIT:    1635456  MISS:    4448830  HIT %:      26.88  MISS %:      73.12   MPKI: 88.9766
L1I PREFETCH  REQUESTED:    6309626  ISSUED:    6291313  USEFUL:    3401504  USELESS:    1047304
L1I USEFUL LOAD PREFETCHES:    3401504 PREFETCH ISSUED TO LOWER LEVEL:    4459754  ACCURACY: 76.2711
L1I TIMELY PREFETCHES:    3401504 LATE PREFETCHES: 10926 DROPPED PREFETCHES: 0
L1I PREFETCHES SAME FILL-ORIGIN LEVEL: 4459754 DIFFERENT FILL-ORIGIN LEVEL: 0
L1I AVERAGE MISS LATENCY: 108500 cycles
L1I RQ	ACCESS:   14225362	FORWARD:          0	MERGED:    4438216	TO_CACHE:    9787146
L1I PQ	ACCESS:    6291313	FORWARD:          0	MERGED:     153295	TO_CACHE:    6138018

BTB TOTAL     ACCESS:    6346794  HIT:    5354841  MISS:     991953  HIT %:    84.3708  MISS %:    15.6292   MPKI: 19.8391
BTB BRANCH_DIRECT_JUMP	ACCESS:     771318  HIT:     694201  MISS:      77117
BTB BRANCH_INDIRECT	ACCESS:     108662  HIT:      73806  MISS:      34856
BTB BRANCH_CONDITIONAL	ACCESS:    2942980  HIT:    2730770  MISS:     212210
BTB BRANCH_DIRECT_CALL	ACCESS:    1049632  HIT:     929791  MISS:     119841
BTB BRANCH_INDIRECT_CALL	ACCESS:     212280  HIT:     143929  MISS:      68351
BTB BRANCH_RETURN	ACCESS:    1261922  HIT:     782344  MISS:     479578
BTB BRANCH_OTHER ACCESS:          0  HIT:          0  MISS:          0

L2C TOTAL     ACCESS:    6070061  HIT:    5952334  MISS:     117727  HIT %:    98.0605  MISS %:    1.93947   MPKI: 2.35454
L2C LOAD      ACCESS:     535397  HIT:     484505  MISS:      50892  HIT %:    90.4945  MISS %:    9.50547   MPKI: 1.01784
L2C DATA LOAD MPKI: 1.0017
L2C INSTRUCTION LOAD MPKI: 0.01614
L2C RFO       ACCESS:      86650  HIT:      75687  MISS:      10963  HIT %:     87.348  MISS %:     12.652   MPKI: 0.21926
L2C PREFETCH  ACCESS:    5217934  HIT:    5168325  MISS:      49609  HIT %:    99.0493  MISS %:    0.95074   MPKI: 0.99218
L2C DATA PREFETCH MPKI: 0.32406
L2C INSTRUCTION PREFETCH MPKI: 0.66812
L2C WRITEBACK ACCESS:     229262  HIT:     223227  MISS:       6035  HIT %:    97.3676  MISS %:    2.63236   MPKI: 0.1207
L2C LOAD TRANSLATION ACCESS:        549  HIT:        429  MISS:        120  HIT %:    78.1421  MISS %:    21.8579   MPKI: 0.0024
L2C TRANSLATION FROM L1D PREFETCHER ACCESS:        269  HIT:        161  MISS:        108  HIT %:    59.8513  MISS %:    40.1487   MPKI: 0.00216
L2C PREFETCH  REQUESTED:    2038520  ISSUED:    2038520  USEFUL:        756  USELESS:      48399
L2C USEFUL LOAD PREFETCHES:        756 PREFETCH ISSUED TO LOWER LEVEL:      49610  ACCURACY: 1.52389
L2C TIMELY PREFETCHES:        756 LATE PREFETCHES: 1 DROPPED PREFETCHES: 0
L2C PREFETCHES SAME FILL-ORIGIN LEVEL: 9288 DIFFERENT FILL-ORIGIN LEVEL: 0
L2C AVERAGE MISS LATENCY: 33.6775 cycles
L2C RQ	ACCESS:     622899	FORWARD:          0	MERGED:          0	TO_CACHE:     622865
L2C WQ	ACCESS:     229262	FORWARD:         34	MERGED:          0	TO_CACHE:     229262
L2C PQ	ACCESS:    6505722	FORWARD:          0	MERGED:    1287615	TO_CACHE:    5218107

L2C Instructions Evicting Data 15602
L2C Translations Evicting Data 209
L2C Data Evicting Data 63476
L2C Instructions Evicting Instructions 18596
L2C Translations Evicting Instructions 18
L2C Data Evicting Instructions 13557
L2C Instructions Evicting Translations 15
L2C Translations Evicting Translations 1
L2C Data Evicting Translations 218
L2C Dense regions hint from L2: 0
PSCL5 TOTAL     ACCESS:        809  HIT:        809  MISS:          0  HIT %:        100  MISS %:          0   MPKI: 0
PSCL5 LOAD TRANSLATION ACCESS:        541  HIT:        541  MISS:          0  HIT %:        100  MISS %:          0   MPKI: 0
PSCL5 TRANSLATION FROM L1D PREFETCHER ACCESS:        268  HIT:        268  MISS:          0  HIT %:        100  MISS %:          0   MPKI: 0
PSCL5 PREFETCH  REQUESTED:          0  ISSUED:          0  USEFUL:          0  USELESS:          0
PSCL5 USEFUL LOAD PREFETCHES:          0 PREFETCH ISSUED TO LOWER LEVEL:          0  ACCURACY: -nan
PSCL5 TIMELY PREFETCHES:          0 LATE PREFETCHES: 0 DROPPED PREFETCHES: 0
PSCL5 PREFETCHES SAME FILL-ORIGIN LEVEL: 0 DIFFERENT FILL-ORIGIN LEVEL: 0

PSCL4 TOTAL     ACCESS:        535  HIT:        534  MISS:          1  HIT %:    99.8131  MISS %:   0.186916   MPKI: 2e-05
PSCL4 LOAD TRANSLATION ACCESS:        355  HIT:        354  MISS:          1  HIT %:    99.7183  MISS %:    0.28169   MPKI: 2e-05
PSCL4 TRANSLATION FROM L1D PREFETCHER ACCESS:        180  HIT:        180  MISS:          0  HIT %:        100  MISS %:          0   MPKI: 0
PSCL4 PREFETCH  REQUESTED:          0  ISSUED:          0  USEFUL:          0  USELESS:          0
PSCL4 USEFUL LOAD PREFETCHES:          0 PREFETCH ISSUED TO LOWER LEVEL:          0  ACCURACY: -nan
PSCL4 TIMELY PREFETCHES:          0 LATE PREFETCHES: 0 DROPPED PREFETCHES: 0
PSCL4 PREFETCHES SAME FILL-ORIGIN LEVEL: 0 DIFFERENT FILL-ORIGIN LEVEL: 0

PSCL3 TOTAL     ACCESS:        619  HIT:        618  MISS:          1  HIT %:    99.8384  MISS %:   0.161551   MPKI: 2e-05
PSCL3 LOAD TRANSLATION ACCESS:        439  HIT:        438  MISS:          1  HIT %:    99.7722  MISS %:    0.22779   MPKI: 2e-05
PSCL3 TRANSLATION FROM L1D PREFETCHER ACCESS:        180  HIT:        180  MISS:          0  HIT %:        100  MISS %:          0   MPKI: 0
PSCL3 PREFETCH  REQUESTED:          0  ISSUED:          0  USEFUL:          0  USELESS:          0
PSCL3 USEFUL LOAD PREFETCHES:          0 PREFETCH ISSUED TO LOWER LEVEL:          0  ACCURACY: -nan
PSCL3 TIMELY PREFETCHES:          0 LATE PREFETCHES: 0 DROPPED PREFETCHES: 0
PSCL3 PREFETCHES SAME FILL-ORIGIN LEVEL: 0 DIFFERENT FILL-ORIGIN LEVEL: 0

PSCL2 TOTAL     ACCESS:        809  HIT:        802  MISS:          7  HIT %:    99.1347  MISS %:   0.865266   MPKI: 0.00014
PSCL2 LOAD TRANSLATION ACCESS:        542  HIT:        535  MISS:          7  HIT %:    98.7085  MISS %:    1.29151   MPKI: 0.00014
PSCL2 TRANSLATION FROM L1D PREFETCHER ACCESS:        267  HIT:        267  MISS:          0  HIT %:        100  MISS %:          0   MPKI: 0
PSCL2 PREFETCH  REQUESTED:          0  ISSUED:          0  USEFUL:          0  USELESS:          0
PSCL2 USEFUL LOAD PREFETCHES:          0 PREFETCH ISSUED TO LOWER LEVEL:          0  ACCURACY: -nan
PSCL2 TIMELY PREFETCHES:          0 LATE PREFETCHES: 0 DROPPED PREFETCHES: 0
PSCL2 PREFETCHES SAME FILL-ORIGIN LEVEL: 0 DIFFERENT FILL-ORIGIN LEVEL: 0

LLC TOTAL     ACCESS:     146704  HIT:     140624  MISS:       6080  HIT %:    95.8556  MISS %:     4.1444   MPKI: 0.1216
LLC LOAD      ACCESS:      50891  HIT:      49465  MISS:       1426  HIT %:    97.1979  MISS %:    2.80207   MPKI: 0.02852
LLC RFO       ACCESS:      10963  HIT:       9654  MISS:       1309  HIT %:    88.0598  MISS %:    11.9402   MPKI: 0.02618
LLC PREFETCH  ACCESS:      49610  HIT:      46348  MISS:       3262  HIT %:    93.4247  MISS %:    6.57529   MPKI: 0.06524
LLC WRITEBACK ACCESS:      35012  HIT:      34938  MISS:         74  HIT %:    99.7886  MISS %:   0.211356   MPKI: 0.00148
LLC LOAD TRANSLATION ACCESS:        120  HIT:        111  MISS:          9  HIT %:       92.5  MISS %:        7.5   MPKI: 0.00018
LLC TRANSLATION FROM L1D PREFETCHER ACCESS:        108  HIT:        108  MISS:          0  HIT %:        100  MISS %:          0   MPKI: 0
LLC PREFETCH  REQUESTED:          0  ISSUED:          0  USEFUL:       1004  USELESS:        147
LLC USEFUL LOAD PREFETCHES:       1004 PREFETCH ISSUED TO LOWER LEVEL:       3262  ACCURACY: 30.7787
LLC TIMELY PREFETCHES:       1004 LATE PREFETCHES: 0 DROPPED PREFETCHES: 0
LLC PREFETCHES SAME FILL-ORIGIN LEVEL: 0 DIFFERENT FILL-ORIGIN LEVEL: 0
LLC AVERAGE MISS LATENCY: 100.853 cycles
LLC RQ	ACCESS:      62082	FORWARD:          0	MERGED:          0	TO_CACHE:      62082
LLC WQ	ACCESS:      35012	FORWARD:          0	MERGED:          0	TO_CACHE:      35012
LLC PQ	ACCESS:      49610	FORWARD:          0	MERGED:          0	TO_CACHE:      49610

LLC Dense regions hint to LLC: 0

RAW hits: 1505828
Loads Generated: 12039279
Loads sent to L1D: 10533449
Stores Generated: 6506011
Stores sent to L1D: 6506011
Major fault: 0 Minor fault: 1244
Allocated PAGES: 1244
I-Shadow cache 408 bytes
Touched + WorthPF tables 6144 bytes 
MMA filter 174 bytes 
FNL filter 272 bytes 
TOTAL PREFETCHER STORAGE SIZE: 25174 bytes
CPU 0 L1I next line prefetcher final stats

stream: 
stream:times selected: 6295
stream:pref_filled: 3816
stream:pref_useful: 19
stream:pref_late: 2
stream:misses: 244
stream:misses_by_poll: 0

CS: 
CS:times selected: 2864
CS:pref_filled: 2774
CS:pref_useful: 2469
CS:pref_late: 11
CS:misses: 143
CS:misses_by_poll: 53

CPLX: 
CPLX:times selected: 3327
CPLX:pref_filled: 784
CPLX:pref_useful: 464
CPLX:pref_late: 7
CPLX:misses: 427
CPLX:misses_by_poll: 0

NL_L1: 
NL:times selected: 50
NL:pref_filled: 48
NL:pref_useful: 0
NL:pref_late: 0
NL:misses: 40
NL:misses_by_poll: 0

total selections: 12536
total_filled: 7425
total_useful: 2952
total_late: 23
total_polluted: 53
total_misses_after_warmup: 866
conflicts: 323
Degree Incremented Times: 128
Degree Decremented Times: 47

L1 IP Table Write Accesses: 19559
L1 IP Table Read Accesses: 19236
L1 RST Write Accesses: 6296
L1 RST Read Accesses: 12584
L1 CSPT Write Accesses: 6296
L1 CSPT Read Accesses: 15922
L1 RR Filter Tag Write Accesses: 8651
L1 RR Filter Tag Read Accesses: 578002
L1 IP Table Tag Write Accesses: 19938
L1 IP Table Tag Read Accesses: 19938
L1 RST Tag Write Accesses: 56
L1 RST Tag Read Accesses: 55984
L1 RR Filter Write Accesses: 0
L1 RR Filter Read Accesses: 22728
test: 881
L2 IP Table Read Accesses: 2076774
L2 IP Table Write Accesses: 4141280
L2 IP Table Tag Read Accesses: 2072463
L2 IP Table Tag Write Accesses: 2072463

DRAM Statistics
 CHANNEL 0
 RQ ROW_BUFFER_HIT:       4344  ROW_BUFFER_MISS:       1662
 DBUS_CONGESTED:          2
 WQ ROW_BUFFER_HIT:         64  ROW_BUFFER_MISS:        292  FULL:          0

 AVG_CONGESTED_CYCLE: 2
 All warmup complete: 2
Channel 0 Bank busy for read cycles: 0
Channel 0 Bank busy for write cycles: 0
Channel 0
Rank 0
0banks busy for read cycles: 62444490
0banks busy for write cycles: 202
1banks busy for read cycles: 133815
1banks busy for write cycles: 30585
2banks busy for read cycles: 87507
2banks busy for write cycles: 6859
3banks busy for read cycles: 27998
3banks busy for write cycles: 2324
4banks busy for read cycles: 11801
4banks busy for write cycles: 1475
5banks busy for read cycles: 3486
5banks busy for write cycles: 831
6banks busy for read cycles: 1452
6banks busy for write cycles: 756
7banks busy for read cycles: 49
7banks busy for write cycles: 267
8banks busy for read cycles: 0
8banks busy for write cycles: 205

CPU 0 Branch Prediction Accuracy: 99.926% MPKI: 0.14472 Average ROB Occupancy at Mispredict: 60.6043
Branch types
NOT_BRANCH: 40220865 80.4417%
BRANCH_DIRECT_JUMP: 771318 1.54264%
BRANCH_INDIRECT: 108662 0.217324%
BRANCH_CONDITIONAL: 6375020 12.75%
BRANCH_DIRECT_CALL: 1049632 2.09926%
BRANCH_INDIRECT_CALL: 212280 0.42456%
BRANCH_RETURN: 1261922 2.52384%
BRANCH_OTHER: 0 0%

DRAM PAGES: 1048576
Allocated PAGES: 1244
