
*** ChampSim Multicore Out-of-Order Simulator ***

Warmup Instructions: 50000000
Simulation Instructions: 50000000
Number of CPUs: 1
LLC sets: 2048
LLC ways: 16
Off-chip DRAM Size: 4096 MB Channels: 1 Width: 64-bit Data Rate: 6400 MT/s
CPU 0 runs ../IPC-traces//server_034.champsimtrace.xz
.xz
NUM_OF_IPS_IN_CRITICAL_IP_TRAINING: 64
NUM_OF_CRITICAL_IP_TRAINING_TABLE_WAYS: 2
NUM_OF_CRITICAL_IP_TRAINING_TABLE_SETS: 32
WOBBLY_CRITICAL_IP_CACHE_SETS: 32
WOBBLY_CRITICAL_IP_CACHE_WAYS: 4
BTB has LRU replacement policy
ITLB has LRU replacement policy
DTLB has LRU replacement policy
STLB has LRU replacement policy
CPU 0 L1I next line prefetcher
L1I has LRU replacement policy
IP Table Entries: 64
L1D has LRU replacement policy
Initialize SRRIP state for L2C
Initialize DRRIP state for LLC
Heartbeat CPU 0 instructions: 10000000 cycles: 2758345 heartbeat IPC: 3.62536 cumulative IPC: 3.62536 (Simulation time: 0 hr 4 min 39 sec) 
Heartbeat CPU 0 instructions: 20000000 cycles: 5511108 heartbeat IPC: 3.63271 cumulative IPC: 3.62903 (Simulation time: 0 hr 9 min 7 sec) 
Heartbeat CPU 0 instructions: 30000003 cycles: 8264123 heartbeat IPC: 3.63238 cumulative IPC: 3.63015 (Simulation time: 0 hr 13 min 0 sec) 
Heartbeat CPU 0 instructions: 40000001 cycles: 11017486 heartbeat IPC: 3.63192 cumulative IPC: 3.63059 (Simulation time: 0 hr 16 min 49 sec) 
Heartbeat CPU 0 instructions: 50000000 cycles: 13771747 heartbeat IPC: 3.63074 cumulative IPC: 3.63062 (Simulation time: 0 hr 20 min 31 sec) 

Warmup complete CPU 0 instructions: 50000002 cycles: 13771748 (Simulation time: 0 hr 20 min 31 sec) 

% increase in all ip prefetch 323.021
% increase in all ip prefetch -0.249
Heartbeat CPU 0 instructions: 60000002 cycles: 26314084 heartbeat IPC: 0.7973 cumulative IPC: 0.7973 (Simulation time: 0 hr 23 min 52 sec) 
Heartbeat CPU 0 instructions: 70000003 cycles: 38852948 heartbeat IPC: 0.797521 cumulative IPC: 0.79741 (Simulation time: 0 hr 27 min 13 sec) 
Heartbeat CPU 0 instructions: 80000001 cycles: 51338405 heartbeat IPC: 0.800932 cumulative IPC: 0.79858 (Simulation time: 0 hr 30 min 31 sec) 
Heartbeat CPU 0 instructions: 90000002 cycles: 63823254 heartbeat IPC: 0.800971 cumulative IPC: 0.799177 (Simulation time: 0 hr 33 min 49 sec) 
Heartbeat CPU 0 instructions: 100000003 cycles: 76378656 heartbeat IPC: 0.79647 cumulative IPC: 0.798634 (Simulation time: 0 hr 37 min 34 sec) 
Finished CPU 0 instructions: 50000001 cycles: 62606908 cumulative IPC: 0.798634 (Simulation time: 0 hr 37 min 34 sec) 

ChampSim completed all CPUs

Region of Interest Statistics

CPU 0 cumulative IPC: 0.798634 instructions: 50000001 cycles: 62606908

CPU 0 Average Load ROB stall cycles: 1.64319e+07
CPU 0 Fraction of times ROB stalled by Loads: 36.4405
CPU 0 Percentage of Load stall cycles in Total stall cycles: 2.53585e+08
Issued all: 26253141
Issued LT all: 20472232
rob_not_full_when_issued_lt_all: 20204876
Issued LT one: 15391299
rob_not_full_when_issued_lt_one: 15168076
 Total stall cycles: 50674455
 Total load stall cycles: 128502775300520
CPU 0 NUM of IPS identified critical: 0
CPU 0 Num of Load IPs stalling ROB: 6898
Threshold modification factor: -1
Max PIST entries: 64
Min PIST entries: 0
Avg PIST entries: 32
Trouble in retire width: 0.860726
MaC = Marked as critical.
lt_50_percent_before_Mac: 0
gt_90_percent_before_Mac: 0
gt_75_percent_before_Mac: 0
gt_50_percent_before_Mac: 0
stall_proportion_bin_same_before_after: 0
stall_proportion_bin_lower_before_after: 0
stall_proportion_bin_upper_before_after: 0
average_stall_proportion_before: -nan
average_stall_proportion_after: -nan
Critical IP stalls, total frequency: 0
Non-critical IP stalls, total frequency: 2849763
Total Freq all stalling IPs: 2849763
stat_90_percent_critical_ip_stalls_freq: 2565103
stat_90_percent_non_critical_ip_stalls_freq: 284660
Critical_IP_ROB_Stalls_Bucket_0: 0
Non-critical_IP_ROB_Stalls_Bucket_0: 1622756
Critical_IP_ROB_Stalls_Bucket_1: 0
Non-critical_IP_ROB_Stalls_Bucket_1: 871159
Critical_IP_ROB_Stalls_Bucket_2: 0
Non-critical_IP_ROB_Stalls_Bucket_2: 269297
Critical_IP_ROB_Stalls_Bucket_3: 0
Non-critical_IP_ROB_Stalls_Bucket_3: 59396
Critical_IP_ROB_Stalls_Bucket_4: 0
Non-critical_IP_ROB_Stalls_Bucket_4: 7106
Critical_IP_ROB_Stalls_Bucket_5: 0
Non-critical_IP_ROB_Stalls_Bucket_5: 3705
Critical_IP_ROB_Stalls_Bucket_6: 0
Non-critical_IP_ROB_Stalls_Bucket_6: 16344
0 => IPs accounting for >50 percent of stalls, 1 => 55, 2 => 60, 3 => 65 and so on till 90.
percent50: 50.0458 num IPs:  363
percent55: 55.0284 num IPs: 465
percent60: 60.0017 num IPs: 567
percent65: 65.0181 num IPs: 670
percent70: 70.0456 num IPs: 774
percent75: 75.0086 num IPs: 879
percent80: 80.0097 num IPs: 989
percent85: 85.0091 num IPs: 1109
percent90: 90.0108 num IPs: 1255
Critical_ROB_Stalls_Percent_0_Bucket_0: 841385
Non-critical_ROB_Stalls_Percent_0_Bucket_0: 781371
Critical_ROB_Stalls_Percent_0_Bucket_1: 423314
Non-critical_ROB_Stalls_Percent_0_Bucket_1: 447845
Critical_ROB_Stalls_Percent_0_Bucket_2: 129855
Non-critical_ROB_Stalls_Percent_0_Bucket_2: 139442
Critical_ROB_Stalls_Percent_0_Bucket_3: 19869
Non-critical_ROB_Stalls_Percent_0_Bucket_3: 39527
Critical_ROB_Stalls_Percent_0_Bucket_4: 3215
Non-critical_ROB_Stalls_Percent_0_Bucket_4: 3891
Critical_ROB_Stalls_Percent_0_Bucket_5: 926
Non-critical_ROB_Stalls_Percent_0_Bucket_5: 2779
Critical_ROB_Stalls_Percent_0_Bucket_6: 7623
Non-critical_ROB_Stalls_Percent_0_Bucket_6: 8721
Critical_ROB_Stalls_Percent_1_Bucket_0: 891803
Non-critical_ROB_Stalls_Percent_1_Bucket_0: 730953
Critical_ROB_Stalls_Percent_1_Bucket_1: 489777
Non-critical_ROB_Stalls_Percent_1_Bucket_1: 381382
Critical_ROB_Stalls_Percent_1_Bucket_2: 149443
Non-critical_ROB_Stalls_Percent_1_Bucket_2: 119854
Critical_ROB_Stalls_Percent_1_Bucket_3: 23934
Non-critical_ROB_Stalls_Percent_1_Bucket_3: 35462
Critical_ROB_Stalls_Percent_1_Bucket_4: 4403
Non-critical_ROB_Stalls_Percent_1_Bucket_4: 2703
Critical_ROB_Stalls_Percent_1_Bucket_5: 1194
Non-critical_ROB_Stalls_Percent_1_Bucket_5: 2511
Critical_ROB_Stalls_Percent_1_Bucket_6: 7629
Non-critical_ROB_Stalls_Percent_1_Bucket_6: 8715
Critical_ROB_Stalls_Percent_2_Bucket_0: 955088
Non-critical_ROB_Stalls_Percent_2_Bucket_0: 667668
Critical_ROB_Stalls_Percent_2_Bucket_1: 546777
Non-critical_ROB_Stalls_Percent_2_Bucket_1: 324382
Critical_ROB_Stalls_Percent_2_Bucket_2: 167058
Non-critical_ROB_Stalls_Percent_2_Bucket_2: 102239
Critical_ROB_Stalls_Percent_2_Bucket_3: 26688
Non-critical_ROB_Stalls_Percent_2_Bucket_3: 32708
Critical_ROB_Stalls_Percent_2_Bucket_4: 4474
Non-critical_ROB_Stalls_Percent_2_Bucket_4: 2632
Critical_ROB_Stalls_Percent_2_Bucket_5: 1290
Non-critical_ROB_Stalls_Percent_2_Bucket_5: 2415
Critical_ROB_Stalls_Percent_2_Bucket_6: 8538
Non-critical_ROB_Stalls_Percent_2_Bucket_6: 7806
Critical_ROB_Stalls_Percent_3_Bucket_0: 1003472
Non-critical_ROB_Stalls_Percent_3_Bucket_0: 619284
Critical_ROB_Stalls_Percent_3_Bucket_1: 593999
Non-critical_ROB_Stalls_Percent_3_Bucket_1: 277160
Critical_ROB_Stalls_Percent_3_Bucket_2: 199886
Non-critical_ROB_Stalls_Percent_3_Bucket_2: 69411
Critical_ROB_Stalls_Percent_3_Bucket_3: 39765
Non-critical_ROB_Stalls_Percent_3_Bucket_3: 19631
Critical_ROB_Stalls_Percent_3_Bucket_4: 4678
Non-critical_ROB_Stalls_Percent_3_Bucket_4: 2428
Critical_ROB_Stalls_Percent_3_Bucket_5: 1440
Non-critical_ROB_Stalls_Percent_3_Bucket_5: 2265
Critical_ROB_Stalls_Percent_3_Bucket_6: 9627
Non-critical_ROB_Stalls_Percent_3_Bucket_6: 6717
Critical_ROB_Stalls_Percent_4_Bucket_0: 1080155
Non-critical_ROB_Stalls_Percent_4_Bucket_0: 542601
Critical_ROB_Stalls_Percent_4_Bucket_1: 639769
Non-critical_ROB_Stalls_Percent_4_Bucket_1: 231390
Critical_ROB_Stalls_Percent_4_Bucket_2: 212416
Non-critical_ROB_Stalls_Percent_4_Bucket_2: 56881
Critical_ROB_Stalls_Percent_4_Bucket_3: 47044
Non-critical_ROB_Stalls_Percent_4_Bucket_3: 12352
Critical_ROB_Stalls_Percent_4_Bucket_4: 4738
Non-critical_ROB_Stalls_Percent_4_Bucket_4: 2368
Critical_ROB_Stalls_Percent_4_Bucket_5: 1541
Non-critical_ROB_Stalls_Percent_4_Bucket_5: 2164
Critical_ROB_Stalls_Percent_4_Bucket_6: 10475
Non-critical_ROB_Stalls_Percent_4_Bucket_6: 5869
Critical_ROB_Stalls_Percent_5_Bucket_0: 1161950
Non-critical_ROB_Stalls_Percent_5_Bucket_0: 460806
Critical_ROB_Stalls_Percent_5_Bucket_1: 682221
Non-critical_ROB_Stalls_Percent_5_Bucket_1: 188938
Critical_ROB_Stalls_Percent_5_Bucket_2: 224834
Non-critical_ROB_Stalls_Percent_5_Bucket_2: 44463
Critical_ROB_Stalls_Percent_5_Bucket_3: 51419
Non-critical_ROB_Stalls_Percent_5_Bucket_3: 7977
Critical_ROB_Stalls_Percent_5_Bucket_4: 5087
Non-critical_ROB_Stalls_Percent_5_Bucket_4: 2019
Critical_ROB_Stalls_Percent_5_Bucket_5: 1584
Non-critical_ROB_Stalls_Percent_5_Bucket_5: 2121
Critical_ROB_Stalls_Percent_5_Bucket_6: 10479
Non-critical_ROB_Stalls_Percent_5_Bucket_6: 5865
Critical_ROB_Stalls_Percent_6_Bucket_0: 1264369
Non-critical_ROB_Stalls_Percent_6_Bucket_0: 358387
Critical_ROB_Stalls_Percent_6_Bucket_1: 715844
Non-critical_ROB_Stalls_Percent_6_Bucket_1: 155315
Critical_ROB_Stalls_Percent_6_Bucket_2: 230958
Non-critical_ROB_Stalls_Percent_6_Bucket_2: 38339
Critical_ROB_Stalls_Percent_6_Bucket_3: 51701
Non-critical_ROB_Stalls_Percent_6_Bucket_3: 7695
Critical_ROB_Stalls_Percent_6_Bucket_4: 5141
Non-critical_ROB_Stalls_Percent_6_Bucket_4: 1965
Critical_ROB_Stalls_Percent_6_Bucket_5: 1602
Non-critical_ROB_Stalls_Percent_6_Bucket_5: 2103
Critical_ROB_Stalls_Percent_6_Bucket_6: 10479
Non-critical_ROB_Stalls_Percent_6_Bucket_6: 5865
Critical_ROB_Stalls_Percent_7_Bucket_0: 1357845
Non-critical_ROB_Stalls_Percent_7_Bucket_0: 264911
Critical_ROB_Stalls_Percent_7_Bucket_1: 752876
Non-critical_ROB_Stalls_Percent_7_Bucket_1: 118283
Critical_ROB_Stalls_Percent_7_Bucket_2: 239319
Non-critical_ROB_Stalls_Percent_7_Bucket_2: 29978
Critical_ROB_Stalls_Percent_7_Bucket_3: 52957
Non-critical_ROB_Stalls_Percent_7_Bucket_3: 6439
Critical_ROB_Stalls_Percent_7_Bucket_4: 5301
Non-critical_ROB_Stalls_Percent_7_Bucket_4: 1805
Critical_ROB_Stalls_Percent_7_Bucket_5: 2133
Non-critical_ROB_Stalls_Percent_7_Bucket_5: 1572
Critical_ROB_Stalls_Percent_7_Bucket_6: 12134
Non-critical_ROB_Stalls_Percent_7_Bucket_6: 4210
Critical_ROB_Stalls_Percent_8_Bucket_0: 1453990
Non-critical_ROB_Stalls_Percent_8_Bucket_0: 168766
Critical_ROB_Stalls_Percent_8_Bucket_1: 785774
Non-critical_ROB_Stalls_Percent_8_Bucket_1: 85385
Critical_ROB_Stalls_Percent_8_Bucket_2: 248933
Non-critical_ROB_Stalls_Percent_8_Bucket_2: 20364
Critical_ROB_Stalls_Percent_8_Bucket_3: 54684
Non-critical_ROB_Stalls_Percent_8_Bucket_3: 4712
Critical_ROB_Stalls_Percent_8_Bucket_4: 5660
Non-critical_ROB_Stalls_Percent_8_Bucket_4: 1446
Critical_ROB_Stalls_Percent_8_Bucket_5: 2381
Non-critical_ROB_Stalls_Percent_8_Bucket_5: 1324
Critical_ROB_Stalls_Percent_8_Bucket_6: 13681
Non-critical_ROB_Stalls_Percent_8_Bucket_6: 2663
Average ROB occupancy Load Stall Begin: 44.8943
Average ROB occupancy Load Stall End: 54.7092
Min ROB occupancy Load Stall Begin: 1
Max ROB occupancy Load Stall Begin: 352
Min ROB occupancy Load Stall End: 1
Max ROB occupancy Load Stall End: 352
Average ROB occupancy Critical Load Stall Begin: -nan
Average ROB occupancy Critical Load Stall End: -nan
Min ROB occupancy Critical Load Stall Begin: 400
Max ROB occupancy Critical Load Stall Begin: 0
Min ROB occupancy Critical Load Stall End: 400
Max ROB occupancy Critical Load Stall End: 0
 ROB Load Stall Begin Bucket Count 0: 1949162
 ROB Load Stall End Bucket Count 0: 1622756
 ROB Critical Load Stall Begin Bucket Count 0: 0
 ROB Critical Load Stall End Bucket Count 0: 0
 ROB Load Stall Begin Bucket Count 1: 654545
 ROB Load Stall End Bucket Count 1: 871159
 ROB Critical Load Stall Begin Bucket Count 1: 0
 ROB Critical Load Stall End Bucket Count 1: 0
 ROB Load Stall Begin Bucket Count 2: 182793
 ROB Load Stall End Bucket Count 2: 269297
 ROB Critical Load Stall Begin Bucket Count 2: 0
 ROB Critical Load Stall End Bucket Count 2: 0
 ROB Load Stall Begin Bucket Count 3: 39092
 ROB Load Stall End Bucket Count 3: 59396
 ROB Critical Load Stall Begin Bucket Count 3: 0
 ROB Critical Load Stall End Bucket Count 3: 0
 ROB Load Stall Begin Bucket Count 4: 5104
 ROB Load Stall End Bucket Count 4: 7106
 ROB Critical Load Stall Begin Bucket Count 4: 0
 ROB Critical Load Stall End Bucket Count 4: 0
 ROB Load Stall Begin Bucket Count 5: 4719
 ROB Load Stall End Bucket Count 5: 3705
 ROB Critical Load Stall Begin Bucket Count 5: 0
 ROB Critical Load Stall End Bucket Count 5: 0
 ROB Load Stall Begin Bucket Count 6: 14348
 ROB Load Stall End Bucket Count 6: 16344
 ROB Critical Load Stall Begin Bucket Count 6: 0
 ROB Critical Load Stall End Bucket Count 6: 0
PIST Tag Read Accesses: 3019568
PIST Read Accesses: 1509784
PIST Tag Write Accesses: 3019568
PIST Write Accesses: 1509784
Criticality detector called times: 2835698
Max global_stall_cycles_count: 2757724
Threshold Modified: 1 times, factor: -1
Sturdy critical IP cache stats: 
 Unused entries: 0
CIC Tag Read Accesses: 0
CIC Read Accesses: 0
CIC Tag Write Accesses: 0
CIC Write Accesses: 0
Wobbly critical IP cache stats: 
 Unused entries: 116
CIC Tag Read Accesses: 76875741
CIC Read Accesses: 0
CIC Tag Write Accesses: 4177
CIC Write Accesses: 0
ITLB TOTAL     ACCESS:   10554656  HIT:    9888730  MISS:     665926  HIT %:    93.6907  MISS %:    6.30931   MPKI: 13.3185
ITLB LOAD TRANSLATION ACCESS:    8289121  HIT:    8268483  MISS:      20638  HIT %:     99.751  MISS %:   0.248977   MPKI: 0.41276
ITLB TRANSLATION FROM L1D PREFETCHER ACCESS:    2265535  HIT:    1620247  MISS:     645288  HIT %:    71.5172  MISS %:    28.4828   MPKI: 12.9058
ITLB PREFETCH  REQUESTED:          0  ISSUED:          0  USEFUL:     547119  USELESS:      98166
ITLB USEFUL LOAD PREFETCHES:     547119 PREFETCH ISSUED TO LOWER LEVEL:          0  ACCURACY: inf
ITLB TIMELY PREFETCHES:     547119 LATE PREFETCHES: 171 DROPPED PREFETCHES: 0
ITLB PREFETCHES SAME FILL-ORIGIN LEVEL: 0 DIFFERENT FILL-ORIGIN LEVEL: 0
ITLB AVERAGE MISS LATENCY: 12124.8 cycles
ITLB RQ	ACCESS:   15982539	FORWARD:          0	MERGED:    5389634	TO_CACHE:   10592905

DTLB TOTAL     ACCESS:    9486069  HIT:    9072467  MISS:     413602  HIT %:    95.6399  MISS %:     4.3601   MPKI: 8.27204
DTLB LOAD TRANSLATION ACCESS:    9486069  HIT:    9072467  MISS:     413602  HIT %:    95.6399  MISS %:     4.3601   MPKI: 8.27204
DTLB PREFETCH  REQUESTED:          0  ISSUED:          0  USEFUL:          0  USELESS:          0
DTLB USEFUL LOAD PREFETCHES:          0 PREFETCH ISSUED TO LOWER LEVEL:          0  ACCURACY: -nan
DTLB TIMELY PREFETCHES:          0 LATE PREFETCHES: 0 DROPPED PREFETCHES: 0
DTLB PREFETCHES SAME FILL-ORIGIN LEVEL: 0 DIFFERENT FILL-ORIGIN LEVEL: 0
DTLB AVERAGE MISS LATENCY: 9.0727 cycles
DTLB RQ	ACCESS:   13399872	FORWARD:          0	MERGED:    3897075	TO_CACHE:    9502797

STLB TOTAL     ACCESS:    1088668  HIT:    1087859  MISS:        809  HIT %:    99.9257  MISS %:   0.074311   MPKI: 0.01618
STLB LOAD TRANSLATION ACCESS:     434069  HIT:     433528  MISS:        541  HIT %:    99.8754  MISS %:   0.124635   MPKI: 0.01082
STLB TRANSLATION FROM L1D PREFETCHER ACCESS:     654599  HIT:     654331  MISS:        268  HIT %:    99.9591  MISS %:  0.0409411   MPKI: 0.00536
STLB PREFETCH  REQUESTED:          0  ISSUED:          0  USEFUL:        153  USELESS:        115
STLB USEFUL LOAD PREFETCHES:        153 PREFETCH ISSUED TO LOWER LEVEL:          0  ACCURACY: inf
STLB TIMELY PREFETCHES:        153 LATE PREFETCHES: 0 DROPPED PREFETCHES: 0
STLB PREFETCHES SAME FILL-ORIGIN LEVEL: 0 DIFFERENT FILL-ORIGIN LEVEL: 0
STLB AVERAGE MISS LATENCY: 36.0124 cycles
STLB RQ	ACCESS:    1095014	FORWARD:          0	MERGED:       6346	TO_CACHE:    1088668

STLB Hit, L1D data hit: 0
STLB Hit, L2C data hit: 0
STLB Hit, LLC data hit: 0
STLB Hit, LLC data miss: 0
STLB STLB hints to L2: 0
L1D TOTAL     ACCESS:   13298937  HIT:   12682121  MISS:     616816  HIT %:    95.3619  MISS %:    4.63808   MPKI: 12.3363
L1D LOAD      ACCESS:    7009591  HIT:    6490815  MISS:     518776  HIT %:    92.5991  MISS %:    7.40095   MPKI: 10.3755
L1D RFO       ACCESS:    6274432  HIT:    6187097  MISS:      87335  HIT %:    98.6081  MISS %:    1.39192   MPKI: 1.7467
L1D PREFETCH  ACCESS:      14914  HIT:       4209  MISS:      10705  HIT %:    28.2218  MISS %:    71.7782   MPKI: 0.2141
L1D PREFETCH  REQUESTED:      31015  ISSUED:      31015  USEFUL:       2907  USELESS:       7839
L1D USEFUL LOAD PREFETCHES:       2907 PREFETCH ISSUED TO LOWER LEVEL:      11155  ACCURACY: 26.0601
L1D TIMELY PREFETCHES:       2907 LATE PREFETCHES: 447 DROPPED PREFETCHES: 0
L1D PREFETCHES SAME FILL-ORIGIN LEVEL: 11155 DIFFERENT FILL-ORIGIN LEVEL: 0
L1D AVERAGE MISS LATENCY: 23020.5 cycles
L1D RQ	ACCESS:   10535327	FORWARD:          0	MERGED:    3351061	TO_CACHE:    7025311
L1D WQ	ACCESS:    6506011	FORWARD:     158998	MERGED:     131450	TO_CACHE:    6374561
L1D PQ	ACCESS:      15529	FORWARD:          0	MERGED:          0	TO_CACHE:      15486

L1D UNIQUE REGIONS ACCESSED: 0
L1D REGIONS CONFLICTS: 0
L1D Cross Page Prefetch Requests: 0
L1D Same Page Prefetch Requests: 166992
L1D ROI Sum of L1D PQ occupancy: 202118
L1D PREFETCHES PUSHED FROM L2C: 0
L1I TOTAL     ACCESS:   15922368  HIT:   11429906  MISS:    4492462  HIT %:    71.7852  MISS %:    28.2148   MPKI: 89.8492
L1I LOAD      ACCESS:    9785047  HIT:    9752386  MISS:      32661  HIT %:    99.6662  MISS %:   0.333785   MPKI: 0.65322
L1I PREFETCH  ACCESS:    6137321  HIT:    1677520  MISS:    4459801  HIT %:    27.3331  MISS %:    72.6669   MPKI: 89.196
L1I PREFETCH  REQUESTED:    6376423  ISSUED:    6350114  USEFUL:    3395765  USELESS:    1064022
L1I USEFUL LOAD PREFETCHES:    3395765 PREFETCH ISSUED TO LOWER LEVEL:    4472421  ACCURACY: 75.9268
L1I TIMELY PREFETCHES:    3395765 LATE PREFETCHES: 12617 DROPPED PREFETCHES: 0
L1I PREFETCHES SAME FILL-ORIGIN LEVEL: 4472421 DIFFERENT FILL-ORIGIN LEVEL: 0
L1I AVERAGE MISS LATENCY: 123336 cycles
L1I RQ	ACCESS:   14219083	FORWARD:          0	MERGED:    4431041	TO_CACHE:    9788042
L1I PQ	ACCESS:    6350114	FORWARD:          0	MERGED:     155617	TO_CACHE:    6194497

BTB TOTAL     ACCESS:    6346792  HIT:    5354841  MISS:     991951  HIT %:    84.3708  MISS %:    15.6292   MPKI: 19.839
BTB BRANCH_DIRECT_JUMP	ACCESS:     771318  HIT:     694201  MISS:      77117
BTB BRANCH_INDIRECT	ACCESS:     108662  HIT:      73806  MISS:      34856
BTB BRANCH_CONDITIONAL	ACCESS:    2942980  HIT:    2730770  MISS:     212210
BTB BRANCH_DIRECT_CALL	ACCESS:    1049632  HIT:     929791  MISS:     119841
BTB BRANCH_INDIRECT_CALL	ACCESS:     212280  HIT:     143929  MISS:      68351
BTB BRANCH_RETURN	ACCESS:    1261920  HIT:     782344  MISS:     479576
BTB BRANCH_OTHER ACCESS:          0  HIT:          0  MISS:          0

L2C TOTAL     ACCESS:    5340545  HIT:    5262247  MISS:      78298  HIT %:    98.5339  MISS %:    1.46611   MPKI: 1.56596
L2C LOAD      ACCESS:     538334  HIT:     500541  MISS:      37793  HIT %:    92.9796  MISS %:    7.02036   MPKI: 0.75586
L2C DATA LOAD MPKI: 0.73908
L2C INSTRUCTION LOAD MPKI: 0.01678
L2C RFO       ACCESS:      87332  HIT:      77536  MISS:       9796  HIT %:     88.783  MISS %:     11.217   MPKI: 0.19592
L2C PREFETCH  ACCESS:    4483576  HIT:    4457224  MISS:      26352  HIT %:    99.4123  MISS %:   0.587745   MPKI: 0.52704
L2C DATA PREFETCH MPKI: 0.15344
L2C INSTRUCTION PREFETCH MPKI: 0.3736
L2C WRITEBACK ACCESS:     230485  HIT:     226340  MISS:       4145  HIT %:    98.2016  MISS %:    1.79838   MPKI: 0.0829
L2C LOAD TRANSLATION ACCESS:        549  HIT:        448  MISS:        101  HIT %:    81.6029  MISS %:    18.3971   MPKI: 0.00202
L2C TRANSLATION FROM L1D PREFETCHER ACCESS:        269  HIT:        158  MISS:        111  HIT %:    58.7361  MISS %:    41.2639   MPKI: 0.00222
L2C PREFETCH  REQUESTED:          0  ISSUED:          0  USEFUL:        741  USELESS:      25924
L2C USEFUL LOAD PREFETCHES:        741 PREFETCH ISSUED TO LOWER LEVEL:      26352  ACCURACY: 2.81193
L2C TIMELY PREFETCHES:        741 LATE PREFETCHES: 0 DROPPED PREFETCHES: 0
L2C PREFETCHES SAME FILL-ORIGIN LEVEL: 0 DIFFERENT FILL-ORIGIN LEVEL: 0
L2C AVERAGE MISS LATENCY: 35.3551 cycles
L2C RQ	ACCESS:     626523	FORWARD:          0	MERGED:          0	TO_CACHE:     626484
L2C WQ	ACCESS:     230485	FORWARD:         39	MERGED:          0	TO_CACHE:     230485
L2C PQ	ACCESS:    4483576	FORWARD:          0	MERGED:          0	TO_CACHE:    4483576

L2C Instructions Evicting Data 9274
L2C Translations Evicting Data 195
L2C Data Evicting Data 46650
L2C Instructions Evicting Instructions 10224
L2C Translations Evicting Instructions 17
L2C Data Evicting Instructions 7579
L2C Instructions Evicting Translations 21
L2C Translations Evicting Translations 0
L2C Data Evicting Translations 193
L2C Dense regions hint from L2: 0
PSCL5 TOTAL     ACCESS:        809  HIT:        809  MISS:          0  HIT %:        100  MISS %:          0   MPKI: 0
PSCL5 LOAD TRANSLATION ACCESS:        541  HIT:        541  MISS:          0  HIT %:        100  MISS %:          0   MPKI: 0
PSCL5 TRANSLATION FROM L1D PREFETCHER ACCESS:        268  HIT:        268  MISS:          0  HIT %:        100  MISS %:          0   MPKI: 0
PSCL5 PREFETCH  REQUESTED:          0  ISSUED:          0  USEFUL:          0  USELESS:          0
PSCL5 USEFUL LOAD PREFETCHES:          0 PREFETCH ISSUED TO LOWER LEVEL:          0  ACCURACY: -nan
PSCL5 TIMELY PREFETCHES:          0 LATE PREFETCHES: 0 DROPPED PREFETCHES: 0
PSCL5 PREFETCHES SAME FILL-ORIGIN LEVEL: 0 DIFFERENT FILL-ORIGIN LEVEL: 0

PSCL4 TOTAL     ACCESS:        535  HIT:        534  MISS:          1  HIT %:    99.8131  MISS %:   0.186916   MPKI: 2e-05
PSCL4 LOAD TRANSLATION ACCESS:        355  HIT:        354  MISS:          1  HIT %:    99.7183  MISS %:    0.28169   MPKI: 2e-05
PSCL4 TRANSLATION FROM L1D PREFETCHER ACCESS:        180  HIT:        180  MISS:          0  HIT %:        100  MISS %:          0   MPKI: 0
PSCL4 PREFETCH  REQUESTED:          0  ISSUED:          0  USEFUL:          0  USELESS:          0
PSCL4 USEFUL LOAD PREFETCHES:          0 PREFETCH ISSUED TO LOWER LEVEL:          0  ACCURACY: -nan
PSCL4 TIMELY PREFETCHES:          0 LATE PREFETCHES: 0 DROPPED PREFETCHES: 0
PSCL4 PREFETCHES SAME FILL-ORIGIN LEVEL: 0 DIFFERENT FILL-ORIGIN LEVEL: 0

PSCL3 TOTAL     ACCESS:        619  HIT:        618  MISS:          1  HIT %:    99.8384  MISS %:   0.161551   MPKI: 2e-05
PSCL3 LOAD TRANSLATION ACCESS:        439  HIT:        438  MISS:          1  HIT %:    99.7722  MISS %:    0.22779   MPKI: 2e-05
PSCL3 TRANSLATION FROM L1D PREFETCHER ACCESS:        180  HIT:        180  MISS:          0  HIT %:        100  MISS %:          0   MPKI: 0
PSCL3 PREFETCH  REQUESTED:          0  ISSUED:          0  USEFUL:          0  USELESS:          0
PSCL3 USEFUL LOAD PREFETCHES:          0 PREFETCH ISSUED TO LOWER LEVEL:          0  ACCURACY: -nan
PSCL3 TIMELY PREFETCHES:          0 LATE PREFETCHES: 0 DROPPED PREFETCHES: 0
PSCL3 PREFETCHES SAME FILL-ORIGIN LEVEL: 0 DIFFERENT FILL-ORIGIN LEVEL: 0

PSCL2 TOTAL     ACCESS:        809  HIT:        802  MISS:          7  HIT %:    99.1347  MISS %:   0.865266   MPKI: 0.00014
PSCL2 LOAD TRANSLATION ACCESS:        542  HIT:        535  MISS:          7  HIT %:    98.7085  MISS %:    1.29151   MPKI: 0.00014
PSCL2 TRANSLATION FROM L1D PREFETCHER ACCESS:        267  HIT:        267  MISS:          0  HIT %:        100  MISS %:          0   MPKI: 0
PSCL2 PREFETCH  REQUESTED:          0  ISSUED:          0  USEFUL:          0  USELESS:          0
PSCL2 USEFUL LOAD PREFETCHES:          0 PREFETCH ISSUED TO LOWER LEVEL:          0  ACCURACY: -nan
PSCL2 TIMELY PREFETCHES:          0 LATE PREFETCHES: 0 DROPPED PREFETCHES: 0
PSCL2 PREFETCHES SAME FILL-ORIGIN LEVEL: 0 DIFFERENT FILL-ORIGIN LEVEL: 0

LLC TOTAL     ACCESS:     103057  HIT:      97533  MISS:       5524  HIT %:    94.6399  MISS %:    5.36014   MPKI: 0.11048
LLC LOAD      ACCESS:      37793  HIT:      36625  MISS:       1168  HIT %:    96.9095  MISS %:    3.09052   MPKI: 0.02336
LLC RFO       ACCESS:       9796  HIT:       9112  MISS:        684  HIT %:    93.0176  MISS %:    6.98244   MPKI: 0.01368
LLC PREFETCH  ACCESS:      26352  HIT:      22778  MISS:       3574  HIT %:    86.4375  MISS %:    13.5625   MPKI: 0.07148
LLC WRITEBACK ACCESS:      28904  HIT:      28815  MISS:         89  HIT %:    99.6921  MISS %:   0.307916   MPKI: 0.00178
LLC LOAD TRANSLATION ACCESS:        101  HIT:         92  MISS:          9  HIT %:    91.0891  MISS %:    8.91089   MPKI: 0.00018
LLC TRANSLATION FROM L1D PREFETCHER ACCESS:        111  HIT:        111  MISS:          0  HIT %:        100  MISS %:          0   MPKI: 0
LLC PREFETCH  REQUESTED:          0  ISSUED:          0  USEFUL:       2162  USELESS:        208
LLC USEFUL LOAD PREFETCHES:       2162 PREFETCH ISSUED TO LOWER LEVEL:       3574  ACCURACY: 60.4924
LLC TIMELY PREFETCHES:       2162 LATE PREFETCHES: 0 DROPPED PREFETCHES: 0
LLC PREFETCHES SAME FILL-ORIGIN LEVEL: 0 DIFFERENT FILL-ORIGIN LEVEL: 0
LLC AVERAGE MISS LATENCY: 98.1684 cycles
LLC RQ	ACCESS:      47801	FORWARD:          0	MERGED:          0	TO_CACHE:      47801
LLC WQ	ACCESS:      28904	FORWARD:          0	MERGED:          0	TO_CACHE:      28904
LLC PQ	ACCESS:      26352	FORWARD:          0	MERGED:          0	TO_CACHE:      26352

LLC Dense regions hint to LLC: 0

RAW hits: 1503946
Loads Generated: 12039274
Loads sent to L1D: 10535327
Stores Generated: 6506011
Stores sent to L1D: 6506011
Major fault: 0 Minor fault: 1244
Allocated PAGES: 1244
I-Shadow cache 408 bytes
Touched + WorthPF tables 6144 bytes 
MMA filter 174 bytes 
FNL filter 272 bytes 
TOTAL PREFETCHER STORAGE SIZE: 25174 bytes
CPU 0 L1I next line prefetcher final stats

stream: 
stream:times selected: 151860
stream:pref_filled: 53139
stream:pref_useful: 5500
stream:pref_late: 825
stream:misses: 3307
stream:misses_by_poll: 0

CS: 
CS:times selected: 6445
CS:pref_filled: 3332
CS:pref_useful: 2738
CS:pref_late: 423
CS:misses: 92
CS:misses_by_poll: 17

CPLX: 
CPLX:times selected: 147632
CPLX:pref_filled: 30947
CPLX:pref_useful: 2975
CPLX:pref_late: 431
CPLX:misses: 10841
CPLX:misses_by_poll: 8

NL_L1: 
NL:times selected: 883
NL:pref_filled: 245
NL:pref_useful: 56
NL:pref_late: 57
NL:misses: 206
NL:misses_by_poll: 0

total selections: 306820
total_filled: 10705
total_useful: 2907
total_late: 1817
total_polluted: 25
total_misses_after_warmup: 25392
conflicts: 129677
Degree Incremented Times: 18
Degree Decremented Times: 108939

L1 IP Table Write Accesses: 163059
L1 IP Table Read Accesses: 33382
L1 RST Write Accesses: 12735
L1 RST Read Accesses: 25470
L1 CSPT Write Accesses: 12735
L1 CSPT Read Accesses: 24439
L1 RR Filter Tag Write Accesses: 15529
L1 RR Filter Tag Read Accesses: 758185
L1 IP Table Tag Write Accesses: 303333
L1 IP Table Tag Read Accesses: 303333
L1 RST Tag Write Accesses: 0
L1 RST Tag Read Accesses: 106467
L1 RR Filter Write Accesses: 0
L1 RR Filter Read Accesses: 25824
test: 72328

DRAM Statistics
 CHANNEL 0
 RQ ROW_BUFFER_HIT:       3853  ROW_BUFFER_MISS:       1582
 DBUS_CONGESTED:          2
 WQ ROW_BUFFER_HIT:         42  ROW_BUFFER_MISS:        374  FULL:          0

 AVG_CONGESTED_CYCLE: 3
 All warmup complete: 2
Channel 0 Bank busy for read cycles: 0
Channel 0 Bank busy for write cycles: 0
Channel 0
Rank 0
0banks busy for read cycles: 62306913
0banks busy for write cycles: 235
1banks busy for read cycles: 145210
1banks busy for write cycles: 34888
2banks busy for read cycles: 57108
2banks busy for write cycles: 7984
3banks busy for read cycles: 23058
3banks busy for write cycles: 3663
4banks busy for read cycles: 18164
4banks busy for write cycles: 1882
5banks busy for read cycles: 4927
5banks busy for write cycles: 857
6banks busy for read cycles: 601
6banks busy for write cycles: 814
7banks busy for read cycles: 65
7banks busy for write cycles: 407
8banks busy for read cycles: 2
8banks busy for write cycles: 131

CPU 0 Branch Prediction Accuracy: 99.926% MPKI: 0.14472 Average ROB Occupancy at Mispredict: 60.4826
Branch types
NOT_BRANCH: 40220862 80.4417%
BRANCH_DIRECT_JUMP: 771318 1.54264%
BRANCH_INDIRECT: 108662 0.217324%
BRANCH_CONDITIONAL: 6375020 12.75%
BRANCH_DIRECT_CALL: 1049632 2.09926%
BRANCH_INDIRECT_CALL: 212280 0.42456%
BRANCH_RETURN: 1261920 2.52384%
BRANCH_OTHER: 0 0%

DRAM PAGES: 1048576
Allocated PAGES: 1244
