Initialize SIGNATURE TABLE
ST_SET: 1
ST_WAY: 16
ST_TAG_BIT: 16
ST_TAG_MASK: ffff

Initialize PATTERN TABLE
PT_SET: 16
PT_WAY: 4
SIG_DELTA_BIT: 7
C_SIG_BIT: 4
C_DELTA_BIT: 4

Initialize PREFETCH FILTER
FILTER_SET: 1024

Initialize PERCEPTRON
PERC_ENTRIES: 4096
PERC_FEATURES: 9

*** ChampSim Multicore Out-of-Order Simulator ***

Warmup Instructions: 50000000
Simulation Instructions: 50000000
Number of CPUs: 1
LLC sets: 2048
LLC ways: 16
Off-chip DRAM Size: 4096 MB Channels: 1 Width: 64-bit Data Rate: 6400 MT/s
CPU 0 runs ../IPC-traces//server_027.champsimtrace.xz
.xz
BTB has LRU replacement policy
ITLB has LRU replacement policy
DTLB has LRU replacement policy
STLB has LRU replacement policy
CPU 0 L1I next line prefetcher
L1I has LRU replacement policy
L1D has LRU replacement policy
Initialize SRRIP state for L2C
Initialize DRRIP state for LLC
Heartbeat CPU 0 instructions: 10000000 cycles: 2886894 heartbeat IPC: 3.46393 cumulative IPC: 3.46393 (Simulation time: 0 hr 4 min 56 sec) 
Heartbeat CPU 0 instructions: 20000001 cycles: 5770251 heartbeat IPC: 3.46818 cumulative IPC: 3.46605 (Simulation time: 0 hr 8 min 36 sec) 
Heartbeat CPU 0 instructions: 30000002 cycles: 8652987 heartbeat IPC: 3.46893 cumulative IPC: 3.46701 (Simulation time: 0 hr 12 min 17 sec) 
Heartbeat CPU 0 instructions: 40000000 cycles: 11537315 heartbeat IPC: 3.46701 cumulative IPC: 3.46701 (Simulation time: 0 hr 15 min 58 sec) 
Heartbeat CPU 0 instructions: 50000001 cycles: 14419423 heartbeat IPC: 3.46968 cumulative IPC: 3.46755 (Simulation time: 0 hr 19 min 10 sec) 

Warmup complete CPU 0 instructions: 50000001 cycles: 14419423 (Simulation time: 0 hr 19 min 10 sec) 

Heartbeat CPU 0 instructions: 60000002 cycles: 31145047 heartbeat IPC: 0.597885 cumulative IPC: 0.597885 (Simulation time: 0 hr 22 min 39 sec) 
Heartbeat CPU 0 instructions: 70000001 cycles: 47778201 heartbeat IPC: 0.601209 cumulative IPC: 0.599542 (Simulation time: 0 hr 26 min 14 sec) 
Heartbeat CPU 0 instructions: 80000002 cycles: 64363594 heartbeat IPC: 0.60294 cumulative IPC: 0.600671 (Simulation time: 0 hr 29 min 44 sec) 
Heartbeat CPU 0 instructions: 90000000 cycles: 81080050 heartbeat IPC: 0.598213 cumulative IPC: 0.600054 (Simulation time: 0 hr 33 min 20 sec) 
Heartbeat CPU 0 instructions: 100000002 cycles: 97619078 heartbeat IPC: 0.604631 cumulative IPC: 0.600964 (Simulation time: 0 hr 36 min 0 sec) 
Finished CPU 0 instructions: 50000001 cycles: 83199655 cumulative IPC: 0.600964 (Simulation time: 0 hr 36 min 0 sec) 

ChampSim completed all CPUs

Region of Interest Statistics

CPU 0 cumulative IPC: 0.600964 instructions: 50000001 cycles: 83199655

CPU 0 Average Load ROB stall cycles: 2.0132e+07
CPU 0 Fraction of times ROB stalled by Loads: 35.9086
CPU 0 Percentage of Load stall cycles in Total stall cycles: 2.81217e+08
Issued all: 28233649
Issued LT all: 22451006
rob_not_full_when_issued_lt_all: 22066035
Issued LT one: 17415220
rob_not_full_when_issued_lt_one: 17079260
 Total stall cycles: 69645391
 Total load stall cycles: 195854569039008
Unique Load IPs: 14113
CPU 0 NUM of IPS identified critical: 58
CPU 0 Num of Load IPs stalling ROB: 0
Threshold modification factor: 0
Trouble in retire width: -nan
MaC = Marked as critical.
lt_50_percent_before_Mac: 18
gt_90_percent_before_Mac: 8
gt_75_percent_before_Mac: 17
gt_50_percent_before_Mac: 11
stall_proportion_bin_same_before_after: 0
stall_proportion_bin_lower_before_after: 0
stall_proportion_bin_upper_before_after: 0
average_stall_proportion_before: 0.0488704
average_stall_proportion_after: 0.0498504
Critical_IP_Detector_Accuracy_70: 0
Critical_IP_Detector_Accuracy_80: 0
Critical_IP_Detector_Accuracy_90: 0
Critical_IP_Detector_Coverage_70: 0
Critical_IP_Detector_Coverage_80: 0
Critical_IP_Detector_Coverage_90: 0
stat_90_percent_critical_ip_stalls_freq: 73833
stat_90_percent_non_critical_ip_stalls_freq: 18446744073709477783
AVERAGE_ROB_Occupancy_90_Percent_Critical_IP_Stalls: 100.102
AVERAGE_ROB_Occupancy_90_Percent_Non_Critical_IP_Stalls: 8.27525e-12
Critical_IP_ROB_Stalls_Bucket_0: 67759
Non-critical_IP_ROB_Stalls_Bucket_0: 2378499
Critical_IP_ROB_Stalls_Bucket_1: 14722
Non-critical_IP_ROB_Stalls_Bucket_1: 679668
Critical_IP_ROB_Stalls_Bucket_2: 2729
Non-critical_IP_ROB_Stalls_Bucket_2: 233478
Critical_IP_ROB_Stalls_Bucket_3: 555
Non-critical_IP_ROB_Stalls_Bucket_3: 59135
Critical_IP_ROB_Stalls_Bucket_4: 134
Non-critical_IP_ROB_Stalls_Bucket_4: 22793
Critical_IP_ROB_Stalls_Bucket_5: 31
Non-critical_IP_ROB_Stalls_Bucket_5: 12170
Critical_IP_ROB_Stalls_Bucket_6: 110
Non-critical_IP_ROB_Stalls_Bucket_6: 21603
0 => IPs accounting for >50 percent of stalls, 1 => 55, 2 => 60, 3 => 65 and so on till 90.
percent50: inf num IPs:  1
percent55: inf num IPs: 1
percent60: inf num IPs: 1
percent65: inf num IPs: 1
percent70: inf num IPs: 1
percent75: inf num IPs: 1
percent80: inf num IPs: 1
percent85: inf num IPs: 1
percent90: inf num IPs: 1
Critical_ROB_Stalls_Percent_0_Bucket_0: 2137
Non-critical_ROB_Stalls_Percent_0_Bucket_0: 2444121
Critical_ROB_Stalls_Percent_0_Bucket_1: 49114
Non-critical_ROB_Stalls_Percent_0_Bucket_1: 645276
Critical_ROB_Stalls_Percent_0_Bucket_2: 20108
Non-critical_ROB_Stalls_Percent_0_Bucket_2: 216099
Critical_ROB_Stalls_Percent_0_Bucket_3: 2473
Non-critical_ROB_Stalls_Percent_0_Bucket_3: 57217
Critical_ROB_Stalls_Percent_0_Bucket_4: 1
Non-critical_ROB_Stalls_Percent_0_Bucket_4: 22926
Critical_ROB_Stalls_Percent_0_Bucket_5: 0
Non-critical_ROB_Stalls_Percent_0_Bucket_5: 12201
Critical_ROB_Stalls_Percent_0_Bucket_6: 0
Non-critical_ROB_Stalls_Percent_0_Bucket_6: 21713
Critical_ROB_Stalls_Percent_1_Bucket_0: 2137
Non-critical_ROB_Stalls_Percent_1_Bucket_0: 2444121
Critical_ROB_Stalls_Percent_1_Bucket_1: 49114
Non-critical_ROB_Stalls_Percent_1_Bucket_1: 645276
Critical_ROB_Stalls_Percent_1_Bucket_2: 20108
Non-critical_ROB_Stalls_Percent_1_Bucket_2: 216099
Critical_ROB_Stalls_Percent_1_Bucket_3: 2473
Non-critical_ROB_Stalls_Percent_1_Bucket_3: 57217
Critical_ROB_Stalls_Percent_1_Bucket_4: 1
Non-critical_ROB_Stalls_Percent_1_Bucket_4: 22926
Critical_ROB_Stalls_Percent_1_Bucket_5: 0
Non-critical_ROB_Stalls_Percent_1_Bucket_5: 12201
Critical_ROB_Stalls_Percent_1_Bucket_6: 0
Non-critical_ROB_Stalls_Percent_1_Bucket_6: 21713
Critical_ROB_Stalls_Percent_2_Bucket_0: 2137
Non-critical_ROB_Stalls_Percent_2_Bucket_0: 2444121
Critical_ROB_Stalls_Percent_2_Bucket_1: 49114
Non-critical_ROB_Stalls_Percent_2_Bucket_1: 645276
Critical_ROB_Stalls_Percent_2_Bucket_2: 20108
Non-critical_ROB_Stalls_Percent_2_Bucket_2: 216099
Critical_ROB_Stalls_Percent_2_Bucket_3: 2473
Non-critical_ROB_Stalls_Percent_2_Bucket_3: 57217
Critical_ROB_Stalls_Percent_2_Bucket_4: 1
Non-critical_ROB_Stalls_Percent_2_Bucket_4: 22926
Critical_ROB_Stalls_Percent_2_Bucket_5: 0
Non-critical_ROB_Stalls_Percent_2_Bucket_5: 12201
Critical_ROB_Stalls_Percent_2_Bucket_6: 0
Non-critical_ROB_Stalls_Percent_2_Bucket_6: 21713
Critical_ROB_Stalls_Percent_3_Bucket_0: 2137
Non-critical_ROB_Stalls_Percent_3_Bucket_0: 2444121
Critical_ROB_Stalls_Percent_3_Bucket_1: 49114
Non-critical_ROB_Stalls_Percent_3_Bucket_1: 645276
Critical_ROB_Stalls_Percent_3_Bucket_2: 20108
Non-critical_ROB_Stalls_Percent_3_Bucket_2: 216099
Critical_ROB_Stalls_Percent_3_Bucket_3: 2473
Non-critical_ROB_Stalls_Percent_3_Bucket_3: 57217
Critical_ROB_Stalls_Percent_3_Bucket_4: 1
Non-critical_ROB_Stalls_Percent_3_Bucket_4: 22926
Critical_ROB_Stalls_Percent_3_Bucket_5: 0
Non-critical_ROB_Stalls_Percent_3_Bucket_5: 12201
Critical_ROB_Stalls_Percent_3_Bucket_6: 0
Non-critical_ROB_Stalls_Percent_3_Bucket_6: 21713
Critical_ROB_Stalls_Percent_4_Bucket_0: 2137
Non-critical_ROB_Stalls_Percent_4_Bucket_0: 2444121
Critical_ROB_Stalls_Percent_4_Bucket_1: 49114
Non-critical_ROB_Stalls_Percent_4_Bucket_1: 645276
Critical_ROB_Stalls_Percent_4_Bucket_2: 20108
Non-critical_ROB_Stalls_Percent_4_Bucket_2: 216099
Critical_ROB_Stalls_Percent_4_Bucket_3: 2473
Non-critical_ROB_Stalls_Percent_4_Bucket_3: 57217
Critical_ROB_Stalls_Percent_4_Bucket_4: 1
Non-critical_ROB_Stalls_Percent_4_Bucket_4: 22926
Critical_ROB_Stalls_Percent_4_Bucket_5: 0
Non-critical_ROB_Stalls_Percent_4_Bucket_5: 12201
Critical_ROB_Stalls_Percent_4_Bucket_6: 0
Non-critical_ROB_Stalls_Percent_4_Bucket_6: 21713
Critical_ROB_Stalls_Percent_5_Bucket_0: 2137
Non-critical_ROB_Stalls_Percent_5_Bucket_0: 2444121
Critical_ROB_Stalls_Percent_5_Bucket_1: 49114
Non-critical_ROB_Stalls_Percent_5_Bucket_1: 645276
Critical_ROB_Stalls_Percent_5_Bucket_2: 20108
Non-critical_ROB_Stalls_Percent_5_Bucket_2: 216099
Critical_ROB_Stalls_Percent_5_Bucket_3: 2473
Non-critical_ROB_Stalls_Percent_5_Bucket_3: 57217
Critical_ROB_Stalls_Percent_5_Bucket_4: 1
Non-critical_ROB_Stalls_Percent_5_Bucket_4: 22926
Critical_ROB_Stalls_Percent_5_Bucket_5: 0
Non-critical_ROB_Stalls_Percent_5_Bucket_5: 12201
Critical_ROB_Stalls_Percent_5_Bucket_6: 0
Non-critical_ROB_Stalls_Percent_5_Bucket_6: 21713
Critical_ROB_Stalls_Percent_6_Bucket_0: 2137
Non-critical_ROB_Stalls_Percent_6_Bucket_0: 2444121
Critical_ROB_Stalls_Percent_6_Bucket_1: 49114
Non-critical_ROB_Stalls_Percent_6_Bucket_1: 645276
Critical_ROB_Stalls_Percent_6_Bucket_2: 20108
Non-critical_ROB_Stalls_Percent_6_Bucket_2: 216099
Critical_ROB_Stalls_Percent_6_Bucket_3: 2473
Non-critical_ROB_Stalls_Percent_6_Bucket_3: 57217
Critical_ROB_Stalls_Percent_6_Bucket_4: 1
Non-critical_ROB_Stalls_Percent_6_Bucket_4: 22926
Critical_ROB_Stalls_Percent_6_Bucket_5: 0
Non-critical_ROB_Stalls_Percent_6_Bucket_5: 12201
Critical_ROB_Stalls_Percent_6_Bucket_6: 0
Non-critical_ROB_Stalls_Percent_6_Bucket_6: 21713
Critical_ROB_Stalls_Percent_7_Bucket_0: 2137
Non-critical_ROB_Stalls_Percent_7_Bucket_0: 2444121
Critical_ROB_Stalls_Percent_7_Bucket_1: 49114
Non-critical_ROB_Stalls_Percent_7_Bucket_1: 645276
Critical_ROB_Stalls_Percent_7_Bucket_2: 20108
Non-critical_ROB_Stalls_Percent_7_Bucket_2: 216099
Critical_ROB_Stalls_Percent_7_Bucket_3: 2473
Non-critical_ROB_Stalls_Percent_7_Bucket_3: 57217
Critical_ROB_Stalls_Percent_7_Bucket_4: 1
Non-critical_ROB_Stalls_Percent_7_Bucket_4: 22926
Critical_ROB_Stalls_Percent_7_Bucket_5: 0
Non-critical_ROB_Stalls_Percent_7_Bucket_5: 12201
Critical_ROB_Stalls_Percent_7_Bucket_6: 0
Non-critical_ROB_Stalls_Percent_7_Bucket_6: 21713
Critical_ROB_Stalls_Percent_8_Bucket_0: 2137
Non-critical_ROB_Stalls_Percent_8_Bucket_0: 2444121
Critical_ROB_Stalls_Percent_8_Bucket_1: 49114
Non-critical_ROB_Stalls_Percent_8_Bucket_1: 645276
Critical_ROB_Stalls_Percent_8_Bucket_2: 20108
Non-critical_ROB_Stalls_Percent_8_Bucket_2: 216099
Critical_ROB_Stalls_Percent_8_Bucket_3: 2473
Non-critical_ROB_Stalls_Percent_8_Bucket_3: 57217
Critical_ROB_Stalls_Percent_8_Bucket_4: 1
Non-critical_ROB_Stalls_Percent_8_Bucket_4: 22926
Critical_ROB_Stalls_Percent_8_Bucket_5: 0
Non-critical_ROB_Stalls_Percent_8_Bucket_5: 12201
Critical_ROB_Stalls_Percent_8_Bucket_6: 0
Non-critical_ROB_Stalls_Percent_8_Bucket_6: 21713
Average ROB occupancy Load Stall Begin: 37.6938
Average ROB occupancy Load Stall End: 45.8129
Min ROB occupancy Load Stall Begin: 1
Max ROB occupancy Load Stall Begin: 352
Min ROB occupancy Load Stall End: 1
Max ROB occupancy Load Stall End: 352
Average ROB occupancy Critical Load Stall Begin: 30.031
Average ROB occupancy Critical Load Stall End: 37.4577
Min ROB occupancy Critical Load Stall Begin: 2
Max ROB occupancy Critical Load Stall Begin: 352
Min ROB occupancy Critical Load Stall End: 3
Max ROB occupancy Critical Load Stall End: 352
 ROB Load Stall Begin Bucket Count 0: 2683408
 ROB Load Stall End Bucket Count 0: 2446258
 ROB Critical Load Stall Begin Bucket Count 0: 30125
 ROB Critical Load Stall End Bucket Count 0: 28344
 ROB Load Stall Begin Bucket Count 1: 537052
 ROB Load Stall End Bucket Count 1: 694390
 ROB Critical Load Stall Begin Bucket Count 1: 5351
 ROB Critical Load Stall End Bucket Count 1: 6612
 ROB Load Stall Begin Bucket Count 2: 177112
 ROB Load Stall End Bucket Count 2: 236207
 ROB Critical Load Stall Begin Bucket Count 2: 841
 ROB Critical Load Stall End Bucket Count 2: 1326
 ROB Load Stall Begin Bucket Count 3: 45164
 ROB Load Stall End Bucket Count 3: 59690
 ROB Critical Load Stall Begin Bucket Count 3: 203
 ROB Critical Load Stall End Bucket Count 3: 230
 ROB Load Stall Begin Bucket Count 4: 19433
 ROB Load Stall End Bucket Count 4: 22927
 ROB Critical Load Stall Begin Bucket Count 4: 48
 ROB Critical Load Stall End Bucket Count 4: 60
 ROB Load Stall Begin Bucket Count 5: 11372
 ROB Load Stall End Bucket Count 5: 12201
 ROB Critical Load Stall Begin Bucket Count 5: 17
 ROB Critical Load Stall End Bucket Count 5: 17
 ROB Load Stall Begin Bucket Count 6: 19845
 ROB Load Stall End Bucket Count 6: 21713
 ROB Critical Load Stall Begin Bucket Count 6: 34
 ROB Critical Load Stall End Bucket Count 6: 36
PIST Tag Read Accesses: 0
PIST Read Accesses: 0
PIST Tag Write Accesses: 0
PIST Write Accesses: 0
Criticality detector called times: 0
Max global_stall_cycles_count: 0
Threshold Modified: 0 times, factor: 0
Sturdy critical IP cache stats: 
 Unused entries: 0
CIC Tag Read Accesses: 0
CIC Read Accesses: 0
CIC Tag Write Accesses: 0
CIC Write Accesses: 0
Wobbly critical IP cache stats: 
 Unused entries: 0
CIC Tag Read Accesses: 150341515
CIC Read Accesses: 0
CIC Tag Write Accesses: 281186
CIC Write Accesses: 0
ITLB TOTAL     ACCESS:   10109260  HIT:    9445827  MISS:     663433  HIT %:    93.4374  MISS %:    6.56263   MPKI: 13.2687
ITLB LOAD TRANSLATION ACCESS:    8100078  HIT:    8007666  MISS:      92412  HIT %:    98.8591  MISS %:    1.14088   MPKI: 1.84824
ITLB TRANSLATION FROM L1D PREFETCHER ACCESS:    2009182  HIT:    1438161  MISS:     571021  HIT %:    71.5794  MISS %:    28.4206   MPKI: 11.4204
ITLB PREFETCH  REQUESTED:          0  ISSUED:          0  USEFUL:     461632  USELESS:     109381
ITLB USEFUL LOAD PREFETCHES:     461632 PREFETCH ISSUED TO LOWER LEVEL:          0  ACCURACY: inf
ITLB TIMELY PREFETCHES:     461632 LATE PREFETCHES: 315 DROPPED PREFETCHES: 4205
ITLB PREFETCHES SAME FILL-ORIGIN LEVEL: 0 DIFFERENT FILL-ORIGIN LEVEL: 0
ITLB AVERAGE MISS LATENCY: 20980.6 cycles
ITLB RQ	ACCESS:   15182298	FORWARD:          0	MERGED:    5028754	TO_CACHE:   10153544

DTLB TOTAL     ACCESS:   11580023  HIT:   11105899  MISS:     474124  HIT %:    95.9057  MISS %:    4.09433   MPKI: 9.48248
DTLB LOAD TRANSLATION ACCESS:   11580023  HIT:   11105899  MISS:     474124  HIT %:    95.9057  MISS %:    4.09433   MPKI: 9.48248
DTLB PREFETCH  REQUESTED:          0  ISSUED:          0  USEFUL:          0  USELESS:          0
DTLB USEFUL LOAD PREFETCHES:          0 PREFETCH ISSUED TO LOWER LEVEL:          0  ACCURACY: -nan
DTLB TIMELY PREFETCHES:          0 LATE PREFETCHES: 0 DROPPED PREFETCHES: 0
DTLB PREFETCHES SAME FILL-ORIGIN LEVEL: 0 DIFFERENT FILL-ORIGIN LEVEL: 0
DTLB AVERAGE MISS LATENCY: 9.3609 cycles
DTLB RQ	ACCESS:   15054965	FORWARD:          0	MERGED:    3448982	TO_CACHE:   11605983

STLB TOTAL     ACCESS:    1137557  HIT:    1135427  MISS:       2130  HIT %:    99.8128  MISS %:   0.187243   MPKI: 0.0426
STLB LOAD TRANSLATION ACCESS:     566221  HIT:     564208  MISS:       2013  HIT %:    99.6445  MISS %:   0.355515   MPKI: 0.04026
STLB TRANSLATION FROM L1D PREFETCHER ACCESS:     571336  HIT:     571219  MISS:        117  HIT %:    99.9795  MISS %:  0.0204783   MPKI: 0.00234
STLB PREFETCH  REQUESTED:          0  ISSUED:          0  USEFUL:        107  USELESS:          9
STLB USEFUL LOAD PREFETCHES:        107 PREFETCH ISSUED TO LOWER LEVEL:          0  ACCURACY: inf
STLB TIMELY PREFETCHES:        107 LATE PREFETCHES: 0 DROPPED PREFETCHES: 4205
STLB PREFETCHES SAME FILL-ORIGIN LEVEL: 0 DIFFERENT FILL-ORIGIN LEVEL: 0
STLB AVERAGE MISS LATENCY: 87.9202 cycles
STLB RQ	ACCESS:    1141762	FORWARD:          0	MERGED:          0	TO_CACHE:    1141762

STLB Hit, L1D data hit: 0
STLB Hit, L2C data hit: 0
STLB Hit, LLC data hit: 0
STLB Hit, LLC data miss: 0
STLB STLB hints to L2: 0
L1D TOTAL     ACCESS:   14532386  HIT:   13513955  MISS:    1018431  HIT %:     92.992  MISS %:    7.00801   MPKI: 20.3686
L1D LOAD      ACCESS:    8148714  HIT:    7418022  MISS:     730692  HIT %:     91.033  MISS %:    8.96696   MPKI: 14.6138
L1D RFO       ACCESS:    6383672  HIT:    6095933  MISS:     287739  HIT %:    95.4926  MISS %:    4.50742   MPKI: 5.75478
L1D PREFETCH  REQUESTED:          0  ISSUED:          0  USEFUL:          0  USELESS:          0
L1D USEFUL LOAD PREFETCHES:          0 PREFETCH ISSUED TO LOWER LEVEL:          0  ACCURACY: -nan
L1D TIMELY PREFETCHES:          0 LATE PREFETCHES: 0 DROPPED PREFETCHES: 0
L1D PREFETCHES SAME FILL-ORIGIN LEVEL: 0 DIFFERENT FILL-ORIGIN LEVEL: 0
L1D AVERAGE MISS LATENCY: 28.0288 cycles
L1D RQ	ACCESS:   11656995	FORWARD:          0	MERGED:    3331234	TO_CACHE:    8184306
L1D WQ	ACCESS:    6942496	FORWARD:     141455	MERGED:      71837	TO_CACHE:    6870659

L1D UNIQUE REGIONS ACCESSED: 0
L1D REGIONS CONFLICTS: 0
L1D Cross Page Prefetch Requests: 0
L1D Same Page Prefetch Requests: 0
L1D ROI Sum of L1D PQ occupancy: 0
L1D PREFETCHES PUSHED FROM L2C: 0
L1I TOTAL     ACCESS:   15034314  HIT:   10914049  MISS:    4120265  HIT %:    72.5943  MISS %:    27.4057   MPKI: 82.4053
L1I LOAD      ACCESS:    9547399  HIT:    9266456  MISS:     280943  HIT %:    97.0574  MISS %:    2.94261   MPKI: 5.61886
L1I PREFETCH  ACCESS:    5486915  HIT:    1647593  MISS:    3839322  HIT %:    30.0277  MISS %:    69.9723   MPKI: 76.7864
L1I PREFETCH  REQUESTED:    5751042  ISSUED:    5741595  USEFUL:    2605817  USELESS:    1233470
L1I USEFUL LOAD PREFETCHES:    2605817 PREFETCH ISSUED TO LOWER LEVEL:    3870061  ACCURACY: 67.3327
L1I TIMELY PREFETCHES:    2605817 LATE PREFETCHES: 30676 DROPPED PREFETCHES: 10506
L1I PREFETCHES SAME FILL-ORIGIN LEVEL: 3870061 DIFFERENT FILL-ORIGIN LEVEL: 0
L1I AVERAGE MISS LATENCY: 400866 cycles
L1I RQ	ACCESS:   13508437	FORWARD:          0	MERGED:    3937725	TO_CACHE:    9570712
L1I PQ	ACCESS:    5741595	FORWARD:          0	MERGED:     130009	TO_CACHE:    5611586

BTB TOTAL     ACCESS:    5988364  HIT:    3982731  MISS:    2005633  HIT %:    66.5078  MISS %:    33.4922   MPKI: 40.1127
BTB BRANCH_DIRECT_JUMP	ACCESS:     526631  HIT:     350330  MISS:     176301
BTB BRANCH_INDIRECT	ACCESS:     205902  HIT:     168509  MISS:      37393
BTB BRANCH_CONDITIONAL	ACCESS:    3029929  HIT:    2469491  MISS:     560438
BTB BRANCH_DIRECT_CALL	ACCESS:     938462  HIT:     531149  MISS:     407313
BTB BRANCH_INDIRECT_CALL	ACCESS:     174486  HIT:      95785  MISS:      78701
BTB BRANCH_RETURN	ACCESS:    1112954  HIT:     367467  MISS:     745487
BTB BRANCH_OTHER ACCESS:          0  HIT:          0  MISS:          0

L2C TOTAL     ACCESS:    7271242  HIT:    6013471  MISS:    1257771  HIT %:    82.7021  MISS %:    17.2979   MPKI: 25.1554
L2C LOAD      ACCESS:     980869  HIT:     719523  MISS:     261346  HIT %:    73.3557  MISS %:    26.6443   MPKI: 5.22692
L2C DATA LOAD MPKI: 4.1583
L2C INSTRUCTION LOAD MPKI: 1.06862
L2C RFO       ACCESS:     287739  HIT:     188836  MISS:      98903  HIT %:    65.6275  MISS %:    34.3725   MPKI: 1.97806
L2C PREFETCH  ACCESS:    5489363  HIT:    4645147  MISS:     844216  HIT %:    84.6209  MISS %:    15.3791   MPKI: 16.8843
L2C DATA PREFETCH MPKI: 7.68212
L2C INSTRUCTION PREFETCH MPKI: 9.2022
L2C WRITEBACK ACCESS:     505251  HIT:     453991  MISS:      51260  HIT %:    89.8545  MISS %:    10.1455   MPKI: 1.0252
L2C LOAD TRANSLATION ACCESS:       2173  HIT:        430  MISS:       1743  HIT %:    19.7883  MISS %:    80.2117   MPKI: 0.03486
L2C TRANSLATION FROM L1D PREFETCHER ACCESS:       5847  HIT:       5544  MISS:        303  HIT %:    94.8179  MISS %:    5.18214   MPKI: 0.00606
L2C PREFETCH  REQUESTED:    2674410  ISSUED:    2674407  USEFUL:      15591  USELESS:     829195
L2C USEFUL LOAD PREFETCHES:      15591 PREFETCH ISSUED TO LOWER LEVEL:     851000  ACCURACY: 1.83208
L2C TIMELY PREFETCHES:      15591 LATE PREFETCHES: 259 DROPPED PREFETCHES: 0
L2C PREFETCHES SAME FILL-ORIGIN LEVEL: 388227 DIFFERENT FILL-ORIGIN LEVEL: 6525
L2C AVERAGE MISS LATENCY: 32.9472 cycles
L2C RQ	ACCESS:    1276718	FORWARD:          0	MERGED:          0	TO_CACHE:    1276628
L2C WQ	ACCESS:     505251	FORWARD:         90	MERGED:          0	TO_CACHE:     505251
L2C PQ	ACCESS:    6544404	FORWARD:          0	MERGED:    1041819	TO_CACHE:    5502585

L2C Instructions Evicting Data 295593
L2C Translations Evicting Data 1345
L2C Data Evicting Data 416002
L2C Instructions Evicting Instructions 217307
L2C Translations Evicting Instructions 688
L2C Data Evicting Instructions 273584
L2C Instructions Evicting Translations 641
L2C Translations Evicting Translations 13
L2C Data Evicting Translations 1338
L2C Dense regions hint from L2: 0
PSCL5 TOTAL     ACCESS:       6335  HIT:       6335  MISS:          0  HIT %:        100  MISS %:          0   MPKI: 0
PSCL5 LOAD TRANSLATION ACCESS:       2013  HIT:       2013  MISS:          0  HIT %:        100  MISS %:          0   MPKI: 0
PSCL5 TRANSLATION FROM L1D PREFETCHER ACCESS:       4322  HIT:       4322  MISS:          0  HIT %:        100  MISS %:          0   MPKI: 0
PSCL5 PREFETCH  REQUESTED:          0  ISSUED:          0  USEFUL:          0  USELESS:          0
PSCL5 USEFUL LOAD PREFETCHES:          0 PREFETCH ISSUED TO LOWER LEVEL:          0  ACCURACY: -nan
PSCL5 TIMELY PREFETCHES:          0 LATE PREFETCHES: 0 DROPPED PREFETCHES: 0
PSCL5 PREFETCHES SAME FILL-ORIGIN LEVEL: 0 DIFFERENT FILL-ORIGIN LEVEL: 0

PSCL4 TOTAL     ACCESS:       5998  HIT:       5976  MISS:         22  HIT %:    99.6332  MISS %:   0.366789   MPKI: 0.00044
PSCL4 LOAD TRANSLATION ACCESS:       1877  HIT:       1855  MISS:         22  HIT %:    98.8279  MISS %:    1.17208   MPKI: 0.00044
PSCL4 TRANSLATION FROM L1D PREFETCHER ACCESS:       4121  HIT:       4121  MISS:          0  HIT %:        100  MISS %:          0   MPKI: 0
PSCL4 PREFETCH  REQUESTED:          0  ISSUED:          0  USEFUL:          0  USELESS:          0
PSCL4 USEFUL LOAD PREFETCHES:          0 PREFETCH ISSUED TO LOWER LEVEL:          0  ACCURACY: -nan
PSCL4 TIMELY PREFETCHES:          0 LATE PREFETCHES: 0 DROPPED PREFETCHES: 0
PSCL4 PREFETCHES SAME FILL-ORIGIN LEVEL: 0 DIFFERENT FILL-ORIGIN LEVEL: 0

PSCL3 TOTAL     ACCESS:       6041  HIT:       6019  MISS:         22  HIT %:    99.6358  MISS %:   0.364178   MPKI: 0.00044
PSCL3 LOAD TRANSLATION ACCESS:       1920  HIT:       1898  MISS:         22  HIT %:    98.8542  MISS %:    1.14583   MPKI: 0.00044
PSCL3 TRANSLATION FROM L1D PREFETCHER ACCESS:       4121  HIT:       4121  MISS:          0  HIT %:        100  MISS %:          0   MPKI: 0
PSCL3 PREFETCH  REQUESTED:          0  ISSUED:          0  USEFUL:          0  USELESS:          0
PSCL3 USEFUL LOAD PREFETCHES:          0 PREFETCH ISSUED TO LOWER LEVEL:          0  ACCURACY: -nan
PSCL3 TIMELY PREFETCHES:          0 LATE PREFETCHES: 0 DROPPED PREFETCHES: 0
PSCL3 PREFETCHES SAME FILL-ORIGIN LEVEL: 0 DIFFERENT FILL-ORIGIN LEVEL: 0

PSCL2 TOTAL     ACCESS:       4939  HIT:       4796  MISS:        143  HIT %:    97.1047  MISS %:    2.89532   MPKI: 0.00286
PSCL2 LOAD TRANSLATION ACCESS:       2030  HIT:       1887  MISS:        143  HIT %:    92.9557  MISS %:    7.04433   MPKI: 0.00286
PSCL2 TRANSLATION FROM L1D PREFETCHER ACCESS:       2909  HIT:       2909  MISS:          0  HIT %:        100  MISS %:          0   MPKI: 0
PSCL2 PREFETCH  REQUESTED:          0  ISSUED:          0  USEFUL:          0  USELESS:          0
PSCL2 USEFUL LOAD PREFETCHES:          0 PREFETCH ISSUED TO LOWER LEVEL:          0  ACCURACY: -nan
PSCL2 TIMELY PREFETCHES:          0 LATE PREFETCHES: 0 DROPPED PREFETCHES: 0
PSCL2 PREFETCHES SAME FILL-ORIGIN LEVEL: 0 DIFFERENT FILL-ORIGIN LEVEL: 0

LLC TOTAL     ACCESS:    1359674  HIT:    1326179  MISS:      33495  HIT %:    97.5365  MISS %:    2.46346   MPKI: 0.6699
LLC LOAD      ACCESS:     261085  HIT:     249775  MISS:      11310  HIT %:    95.6681  MISS %:    4.33192   MPKI: 0.2262
LLC RFO       ACCESS:      98903  HIT:      83967  MISS:      14936  HIT %:    84.8983  MISS %:    15.1017   MPKI: 0.29872
LLC PREFETCH  ACCESS:     850985  HIT:     844246  MISS:       6739  HIT %:    99.2081  MISS %:   0.791906   MPKI: 0.13478
LLC WRITEBACK ACCESS:     146655  HIT:     146383  MISS:        272  HIT %:    99.8145  MISS %:   0.185469   MPKI: 0.00544
LLC LOAD TRANSLATION ACCESS:       1743  HIT:       1520  MISS:        223  HIT %:     87.206  MISS %:     12.794   MPKI: 0.00446
LLC TRANSLATION FROM L1D PREFETCHER ACCESS:        303  HIT:        288  MISS:         15  HIT %:    95.0495  MISS %:     4.9505   MPKI: 0.0003
LLC PREFETCH  REQUESTED:          0  ISSUED:          0  USEFUL:        645  USELESS:       9436
LLC USEFUL LOAD PREFETCHES:        645 PREFETCH ISSUED TO LOWER LEVEL:       6743  ACCURACY: 9.56548
LLC TIMELY PREFETCHES:        645 LATE PREFETCHES: 4 DROPPED PREFETCHES: 0
LLC PREFETCHES SAME FILL-ORIGIN LEVEL: 295 DIFFERENT FILL-ORIGIN LEVEL: 0
LLC AVERAGE MISS LATENCY: 156.977 cycles
LLC RQ	ACCESS:     362036	FORWARD:          0	MERGED:          0	TO_CACHE:     362034
LLC WQ	ACCESS:     146655	FORWARD:          2	MERGED:          0	TO_CACHE:     146655
LLC PQ	ACCESS:     851000	FORWARD:          0	MERGED:          8	TO_CACHE:     850992

LLC Dense regions hint to LLC: 0

RAW hits: 977733
Loads Generated: 12634728
Loads sent to L1D: 11656995
Stores Generated: 6942481
Stores sent to L1D: 6942496
Major fault: 0 Minor fault: 2582
Allocated PAGES: 2582
I-Shadow cache 408 bytes
Touched + WorthPF tables 6144 bytes 
MMA filter 174 bytes 
FNL filter 272 bytes 
TOTAL PREFETCHER STORAGE SIZE: 25174 bytes
CPU 0 L1I next line prefetcher final stats
------------------
Depth Distribution
------------------
depth 0: 110241
depth 1: 79880
depth 2: 757309
depth 3: 2814303
depth 4: 111560
depth 5: 0
depth 6: 0
depth 7: 0
depth 8: 0
depth 9: 0
depth 10: 0
depth 11: 0
depth 12: 0
depth 13: 0
depth 14: 0
depth 15: 0
depth 16: 0
depth 17: 0
depth 18: 0
depth 19: 0
depth 20: 0
depth 21: 0
depth 22: 0
depth 23: 0
depth 24: 0
depth 25: 0
depth 26: 0
depth 27: 0
depth 28: 0
depth 29: 0
Total: 3873293
------------------
ST read accesses: 1379224
ST write accesses: 443927
PT read accesses: 37111871
PT write accesses: 1634626
FILTER read accesses: 9155202
FILTER write accesses: 6370327
GHR read accesses: 4544954
GHR write accesses: 196434
PERC read accesses: 271550529
PERC write accesses: 22878952
GHR counter read accesses: 3646302
GHR counter write accesses: 6123659
GHR ip read accesses: 13548390
GHR ip write accesses: 7292604
ST tag read accesses: 58868108
ST tag write accesses: 9136638

DRAM Statistics
 CHANNEL 0
 RQ ROW_BUFFER_HIT:      10050  ROW_BUFFER_MISS:      23167
 DBUS_CONGESTED:          3
 WQ ROW_BUFFER_HIT:       1474  ROW_BUFFER_MISS:      13343  FULL:          0

 AVG_CONGESTED_CYCLE: 4
 All warmup complete: 2
Channel 0 Bank busy for read cycles: 0
Channel 0 Bank busy for write cycles: 0
Channel 0
Rank 0
0banks busy for read cycles: 79410667
0banks busy for write cycles: 4945
1banks busy for read cycles: 1883431
1banks busy for write cycles: 706425
2banks busy for read cycles: 233108
2banks busy for write cycles: 166962
3banks busy for read cycles: 82949
3banks busy for write cycles: 107784
4banks busy for read cycles: 46575
4banks busy for write cycles: 89314
5banks busy for read cycles: 37103
5banks busy for write cycles: 84798
6banks busy for read cycles: 37713
6banks busy for write cycles: 73825
7banks busy for read cycles: 38580
7banks busy for write cycles: 51777
8banks busy for read cycles: 66837
8banks busy for write cycles: 76863

CPU 0 Branch Prediction Accuracy: 99.8082% MPKI: 0.35064 Average ROB Occupancy at Mispredict: 74.1098
Branch types
NOT_BRANCH: 40857264 81.7145%
BRANCH_DIRECT_JUMP: 526631 1.05326%
BRANCH_INDIRECT: 205902 0.411804%
BRANCH_CONDITIONAL: 6184019 12.368%
BRANCH_DIRECT_CALL: 938462 1.87692%
BRANCH_INDIRECT_CALL: 174486 0.348972%
BRANCH_RETURN: 1112954 2.22591%
BRANCH_OTHER: 0 0%

DRAM PAGES: 1048576
Allocated PAGES: 2582
