Initialize SIGNATURE TABLE
ST_SET: 1
ST_WAY: 16
ST_TAG_BIT: 16
ST_TAG_MASK: ffff

Initialize PATTERN TABLE
PT_SET: 16
PT_WAY: 4
SIG_DELTA_BIT: 7
C_SIG_BIT: 4
C_DELTA_BIT: 4

Initialize PREFETCH FILTER
FILTER_SET: 1024

Initialize PERCEPTRON
PERC_ENTRIES: 4096
PERC_FEATURES: 9

*** ChampSim Multicore Out-of-Order Simulator ***

Warmup Instructions: 50000000
Simulation Instructions: 50000000
Number of CPUs: 1
LLC sets: 2048
LLC ways: 16
Off-chip DRAM Size: 4096 MB Channels: 1 Width: 64-bit Data Rate: 6400 MT/s
CPU 0 runs ../IPC-traces//server_004.champsimtrace.xz
.xz
BTB has LRU replacement policy
ITLB has LRU replacement policy
DTLB has LRU replacement policy
STLB has LRU replacement policy
CPU 0 L1I next line prefetcher
L1I has LRU replacement policy
L1D has LRU replacement policy
Initialize SRRIP state for L2C
Initialize DRRIP state for LLC
Heartbeat CPU 0 instructions: 10000002 cycles: 2773193 heartbeat IPC: 3.60595 cumulative IPC: 3.60595 (Simulation time: 0 hr 3 min 10 sec) 
Heartbeat CPU 0 instructions: 20000002 cycles: 5586613 heartbeat IPC: 3.55439 cumulative IPC: 3.57999 (Simulation time: 0 hr 5 min 35 sec) 
Heartbeat CPU 0 instructions: 30000000 cycles: 9727273 heartbeat IPC: 2.41507 cumulative IPC: 3.08411 (Simulation time: 0 hr 8 min 37 sec) 
Heartbeat CPU 0 instructions: 40000003 cycles: 12866544 heartbeat IPC: 3.18545 cumulative IPC: 3.10884 (Simulation time: 0 hr 11 min 6 sec) 
Heartbeat CPU 0 instructions: 50000003 cycles: 15632322 heartbeat IPC: 3.61562 cumulative IPC: 3.1985 (Simulation time: 0 hr 13 min 8 sec) 

Warmup complete CPU 0 instructions: 50000003 cycles: 15632322 (Simulation time: 0 hr 13 min 8 sec) 

Heartbeat CPU 0 instructions: 60000002 cycles: 31084037 heartbeat IPC: 0.647177 cumulative IPC: 0.647177 (Simulation time: 0 hr 15 min 51 sec) 
Heartbeat CPU 0 instructions: 70000000 cycles: 46030609 heartbeat IPC: 0.66905 cumulative IPC: 0.657932 (Simulation time: 0 hr 18 min 28 sec) 
Heartbeat CPU 0 instructions: 80000001 cycles: 73893879 heartbeat IPC: 0.358895 cumulative IPC: 0.514919 (Simulation time: 0 hr 22 min 31 sec) 
Heartbeat CPU 0 instructions: 90000000 cycles: 97138681 heartbeat IPC: 0.430204 cumulative IPC: 0.490759 (Simulation time: 0 hr 25 min 56 sec) 
Heartbeat CPU 0 instructions: 100000002 cycles: 112906168 heartbeat IPC: 0.634217 cumulative IPC: 0.514013 (Simulation time: 0 hr 29 min 55 sec) 
Finished CPU 0 instructions: 50000000 cycles: 97273848 cumulative IPC: 0.514013 (Simulation time: 0 hr 29 min 55 sec) 

ChampSim completed all CPUs

Region of Interest Statistics

CPU 0 cumulative IPC: 0.514013 instructions: 50000000 cycles: 97273848

CPU 0 Average Load ROB stall cycles: 3.2117e+07
CPU 0 Fraction of times ROB stalled by Loads: 49.5111
CPU 0 Percentage of Load stall cycles in Total stall cycles: 3.17896e+08
Issued all: 35762135
Issued LT all: 30400855
rob_not_full_when_issued_lt_all: 21616266
Issued LT one: 24224266
rob_not_full_when_issued_lt_one: 16259310
FVP critical_dynamic_instances_0: 3954051
FVP unique_critical_ips_0: 25222
 Total stall cycles: 82175803
 Total load stall cycles: 261233778047669
Unique Load IPs: 67442
CPU 0 NUM of IPS identified critical: 0
CPU 0 Num of Load IPs stalling ROB: 0
Threshold modification factor: 0
Trouble in retire width: -nan
MaC = Marked as critical.
lt_50_percent_before_Mac: 0
gt_90_percent_before_Mac: 0
gt_75_percent_before_Mac: 0
gt_50_percent_before_Mac: 0
stall_proportion_bin_same_before_after: 0
stall_proportion_bin_lower_before_after: 0
stall_proportion_bin_upper_before_after: 0
average_stall_proportion_before: -nan
average_stall_proportion_after: -nan
Critical IP stalls, total frequency: 0
Non-critical IP stalls, total frequency: 0
Total Freq all stalling IPs: 0
Critical_IP_Detector_Accuracy_70: 3.96479e-05
Critical_IP_Detector_Accuracy_80: 3.96479e-05
Critical_IP_Detector_Accuracy_90: 3.96479e-05
Critical_IP_Detector_Coverage_70: 1
Critical_IP_Detector_Coverage_80: 1
Critical_IP_Detector_Coverage_90: 1
stat_90_percent_critical_ip_stalls_freq: 713971
stat_90_percent_non_critical_ip_stalls_freq: 18446744073708837645
AVERAGE_ROB_Occupancy_90_Percent_Critical_IP_Stalls: 258.542
AVERAGE_ROB_Occupancy_90_Percent_Non_Critical_IP_Stalls: 1.90733e-11
Critical_IP_ROB_Stalls_Bucket_0: 0
Non-critical_IP_ROB_Stalls_Bucket_0: 1432130
Critical_IP_ROB_Stalls_Bucket_1: 0
Non-critical_IP_ROB_Stalls_Bucket_1: 777116
Critical_IP_ROB_Stalls_Bucket_2: 0
Non-critical_IP_ROB_Stalls_Bucket_2: 403694
Critical_IP_ROB_Stalls_Bucket_3: 0
Non-critical_IP_ROB_Stalls_Bucket_3: 285236
Critical_IP_ROB_Stalls_Bucket_4: 0
Non-critical_IP_ROB_Stalls_Bucket_4: 234881
Critical_IP_ROB_Stalls_Bucket_5: 0
Non-critical_IP_ROB_Stalls_Bucket_5: 233146
Critical_IP_ROB_Stalls_Bucket_6: 0
Non-critical_IP_ROB_Stalls_Bucket_6: 660929
0 => IPs accounting for >50 percent of stalls, 1 => 55, 2 => 60, 3 => 65 and so on till 90.
percent50: inf num IPs:  1
percent55: inf num IPs: 1
percent60: inf num IPs: 1
percent65: inf num IPs: 1
percent70: inf num IPs: 1
percent75: inf num IPs: 1
percent80: inf num IPs: 1
percent85: inf num IPs: 1
percent90: inf num IPs: 1
Critical_ROB_Stalls_Percent_0_Bucket_0: 73
Non-critical_ROB_Stalls_Percent_0_Bucket_0: 1432057
Critical_ROB_Stalls_Percent_0_Bucket_1: 14743
Non-critical_ROB_Stalls_Percent_0_Bucket_1: 762373
Critical_ROB_Stalls_Percent_0_Bucket_2: 89195
Non-critical_ROB_Stalls_Percent_0_Bucket_2: 314499
Critical_ROB_Stalls_Percent_0_Bucket_3: 105129
Non-critical_ROB_Stalls_Percent_0_Bucket_3: 180107
Critical_ROB_Stalls_Percent_0_Bucket_4: 104536
Non-critical_ROB_Stalls_Percent_0_Bucket_4: 130345
Critical_ROB_Stalls_Percent_0_Bucket_5: 108120
Non-critical_ROB_Stalls_Percent_0_Bucket_5: 125026
Critical_ROB_Stalls_Percent_0_Bucket_6: 292175
Non-critical_ROB_Stalls_Percent_0_Bucket_6: 368754
Critical_ROB_Stalls_Percent_1_Bucket_0: 73
Non-critical_ROB_Stalls_Percent_1_Bucket_0: 1432057
Critical_ROB_Stalls_Percent_1_Bucket_1: 14743
Non-critical_ROB_Stalls_Percent_1_Bucket_1: 762373
Critical_ROB_Stalls_Percent_1_Bucket_2: 89195
Non-critical_ROB_Stalls_Percent_1_Bucket_2: 314499
Critical_ROB_Stalls_Percent_1_Bucket_3: 105129
Non-critical_ROB_Stalls_Percent_1_Bucket_3: 180107
Critical_ROB_Stalls_Percent_1_Bucket_4: 104536
Non-critical_ROB_Stalls_Percent_1_Bucket_4: 130345
Critical_ROB_Stalls_Percent_1_Bucket_5: 108120
Non-critical_ROB_Stalls_Percent_1_Bucket_5: 125026
Critical_ROB_Stalls_Percent_1_Bucket_6: 292175
Non-critical_ROB_Stalls_Percent_1_Bucket_6: 368754
Critical_ROB_Stalls_Percent_2_Bucket_0: 73
Non-critical_ROB_Stalls_Percent_2_Bucket_0: 1432057
Critical_ROB_Stalls_Percent_2_Bucket_1: 14743
Non-critical_ROB_Stalls_Percent_2_Bucket_1: 762373
Critical_ROB_Stalls_Percent_2_Bucket_2: 89195
Non-critical_ROB_Stalls_Percent_2_Bucket_2: 314499
Critical_ROB_Stalls_Percent_2_Bucket_3: 105129
Non-critical_ROB_Stalls_Percent_2_Bucket_3: 180107
Critical_ROB_Stalls_Percent_2_Bucket_4: 104536
Non-critical_ROB_Stalls_Percent_2_Bucket_4: 130345
Critical_ROB_Stalls_Percent_2_Bucket_5: 108120
Non-critical_ROB_Stalls_Percent_2_Bucket_5: 125026
Critical_ROB_Stalls_Percent_2_Bucket_6: 292175
Non-critical_ROB_Stalls_Percent_2_Bucket_6: 368754
Critical_ROB_Stalls_Percent_3_Bucket_0: 73
Non-critical_ROB_Stalls_Percent_3_Bucket_0: 1432057
Critical_ROB_Stalls_Percent_3_Bucket_1: 14743
Non-critical_ROB_Stalls_Percent_3_Bucket_1: 762373
Critical_ROB_Stalls_Percent_3_Bucket_2: 89195
Non-critical_ROB_Stalls_Percent_3_Bucket_2: 314499
Critical_ROB_Stalls_Percent_3_Bucket_3: 105129
Non-critical_ROB_Stalls_Percent_3_Bucket_3: 180107
Critical_ROB_Stalls_Percent_3_Bucket_4: 104536
Non-critical_ROB_Stalls_Percent_3_Bucket_4: 130345
Critical_ROB_Stalls_Percent_3_Bucket_5: 108120
Non-critical_ROB_Stalls_Percent_3_Bucket_5: 125026
Critical_ROB_Stalls_Percent_3_Bucket_6: 292175
Non-critical_ROB_Stalls_Percent_3_Bucket_6: 368754
Critical_ROB_Stalls_Percent_4_Bucket_0: 73
Non-critical_ROB_Stalls_Percent_4_Bucket_0: 1432057
Critical_ROB_Stalls_Percent_4_Bucket_1: 14743
Non-critical_ROB_Stalls_Percent_4_Bucket_1: 762373
Critical_ROB_Stalls_Percent_4_Bucket_2: 89195
Non-critical_ROB_Stalls_Percent_4_Bucket_2: 314499
Critical_ROB_Stalls_Percent_4_Bucket_3: 105129
Non-critical_ROB_Stalls_Percent_4_Bucket_3: 180107
Critical_ROB_Stalls_Percent_4_Bucket_4: 104536
Non-critical_ROB_Stalls_Percent_4_Bucket_4: 130345
Critical_ROB_Stalls_Percent_4_Bucket_5: 108120
Non-critical_ROB_Stalls_Percent_4_Bucket_5: 125026
Critical_ROB_Stalls_Percent_4_Bucket_6: 292175
Non-critical_ROB_Stalls_Percent_4_Bucket_6: 368754
Critical_ROB_Stalls_Percent_5_Bucket_0: 73
Non-critical_ROB_Stalls_Percent_5_Bucket_0: 1432057
Critical_ROB_Stalls_Percent_5_Bucket_1: 14743
Non-critical_ROB_Stalls_Percent_5_Bucket_1: 762373
Critical_ROB_Stalls_Percent_5_Bucket_2: 89195
Non-critical_ROB_Stalls_Percent_5_Bucket_2: 314499
Critical_ROB_Stalls_Percent_5_Bucket_3: 105129
Non-critical_ROB_Stalls_Percent_5_Bucket_3: 180107
Critical_ROB_Stalls_Percent_5_Bucket_4: 104536
Non-critical_ROB_Stalls_Percent_5_Bucket_4: 130345
Critical_ROB_Stalls_Percent_5_Bucket_5: 108120
Non-critical_ROB_Stalls_Percent_5_Bucket_5: 125026
Critical_ROB_Stalls_Percent_5_Bucket_6: 292175
Non-critical_ROB_Stalls_Percent_5_Bucket_6: 368754
Critical_ROB_Stalls_Percent_6_Bucket_0: 73
Non-critical_ROB_Stalls_Percent_6_Bucket_0: 1432057
Critical_ROB_Stalls_Percent_6_Bucket_1: 14743
Non-critical_ROB_Stalls_Percent_6_Bucket_1: 762373
Critical_ROB_Stalls_Percent_6_Bucket_2: 89195
Non-critical_ROB_Stalls_Percent_6_Bucket_2: 314499
Critical_ROB_Stalls_Percent_6_Bucket_3: 105129
Non-critical_ROB_Stalls_Percent_6_Bucket_3: 180107
Critical_ROB_Stalls_Percent_6_Bucket_4: 104536
Non-critical_ROB_Stalls_Percent_6_Bucket_4: 130345
Critical_ROB_Stalls_Percent_6_Bucket_5: 108120
Non-critical_ROB_Stalls_Percent_6_Bucket_5: 125026
Critical_ROB_Stalls_Percent_6_Bucket_6: 292175
Non-critical_ROB_Stalls_Percent_6_Bucket_6: 368754
Critical_ROB_Stalls_Percent_7_Bucket_0: 73
Non-critical_ROB_Stalls_Percent_7_Bucket_0: 1432057
Critical_ROB_Stalls_Percent_7_Bucket_1: 14743
Non-critical_ROB_Stalls_Percent_7_Bucket_1: 762373
Critical_ROB_Stalls_Percent_7_Bucket_2: 89195
Non-critical_ROB_Stalls_Percent_7_Bucket_2: 314499
Critical_ROB_Stalls_Percent_7_Bucket_3: 105129
Non-critical_ROB_Stalls_Percent_7_Bucket_3: 180107
Critical_ROB_Stalls_Percent_7_Bucket_4: 104536
Non-critical_ROB_Stalls_Percent_7_Bucket_4: 130345
Critical_ROB_Stalls_Percent_7_Bucket_5: 108120
Non-critical_ROB_Stalls_Percent_7_Bucket_5: 125026
Critical_ROB_Stalls_Percent_7_Bucket_6: 292175
Non-critical_ROB_Stalls_Percent_7_Bucket_6: 368754
Critical_ROB_Stalls_Percent_8_Bucket_0: 73
Non-critical_ROB_Stalls_Percent_8_Bucket_0: 1432057
Critical_ROB_Stalls_Percent_8_Bucket_1: 14743
Non-critical_ROB_Stalls_Percent_8_Bucket_1: 762373
Critical_ROB_Stalls_Percent_8_Bucket_2: 89195
Non-critical_ROB_Stalls_Percent_8_Bucket_2: 314499
Critical_ROB_Stalls_Percent_8_Bucket_3: 105129
Non-critical_ROB_Stalls_Percent_8_Bucket_3: 180107
Critical_ROB_Stalls_Percent_8_Bucket_4: 104536
Non-critical_ROB_Stalls_Percent_8_Bucket_4: 130345
Critical_ROB_Stalls_Percent_8_Bucket_5: 108120
Non-critical_ROB_Stalls_Percent_8_Bucket_5: 125026
Critical_ROB_Stalls_Percent_8_Bucket_6: 292175
Non-critical_ROB_Stalls_Percent_8_Bucket_6: 368754
Average ROB occupancy Load Stall Begin: 125.656
Average ROB occupancy Load Stall End: 133.204
Min ROB occupancy Load Stall Begin: 1
Max ROB occupancy Load Stall Begin: 352
Min ROB occupancy Load Stall End: 1
Max ROB occupancy Load Stall End: 352
Average ROB occupancy Critical Load Stall Begin: -nan
Average ROB occupancy Critical Load Stall End: -nan
Min ROB occupancy Critical Load Stall Begin: 400
Max ROB occupancy Critical Load Stall Begin: 0
Min ROB occupancy Critical Load Stall End: 400
Max ROB occupancy Critical Load Stall End: 0
 ROB Load Stall Begin Bucket Count 0: 1713356
 ROB Load Stall End Bucket Count 0: 1432130
 ROB Critical Load Stall Begin Bucket Count 0: 0
 ROB Critical Load Stall End Bucket Count 0: 0
 ROB Load Stall Begin Bucket Count 1: 601457
 ROB Load Stall End Bucket Count 1: 777116
 ROB Critical Load Stall Begin Bucket Count 1: 0
 ROB Critical Load Stall End Bucket Count 1: 0
 ROB Load Stall Begin Bucket Count 2: 349663
 ROB Load Stall End Bucket Count 2: 403694
 ROB Critical Load Stall Begin Bucket Count 2: 0
 ROB Critical Load Stall End Bucket Count 2: 0
 ROB Load Stall Begin Bucket Count 3: 259688
 ROB Load Stall End Bucket Count 3: 285236
 ROB Critical Load Stall Begin Bucket Count 3: 0
 ROB Critical Load Stall End Bucket Count 3: 0
 ROB Load Stall Begin Bucket Count 4: 230708
 ROB Load Stall End Bucket Count 4: 234881
 ROB Critical Load Stall Begin Bucket Count 4: 0
 ROB Critical Load Stall End Bucket Count 4: 0
 ROB Load Stall Begin Bucket Count 5: 225467
 ROB Load Stall End Bucket Count 5: 233146
 ROB Critical Load Stall Begin Bucket Count 5: 0
 ROB Critical Load Stall End Bucket Count 5: 0
 ROB Load Stall Begin Bucket Count 6: 646794
 ROB Load Stall End Bucket Count 6: 660929
 ROB Critical Load Stall Begin Bucket Count 6: 0
 ROB Critical Load Stall End Bucket Count 6: 0
PIST Tag Read Accesses: 0
PIST Read Accesses: 0
PIST Tag Write Accesses: 0
PIST Write Accesses: 0
Criticality detector called times: 0
Max global_stall_cycles_count: 0
Threshold Modified: 0 times, factor: 0
ITLB TOTAL     ACCESS:    9908134  HIT:    9714286  MISS:     193848  HIT %:    98.0435  MISS %:    1.95645   MPKI: 3.87696
ITLB LOAD TRANSLATION ACCESS:    8938024  HIT:    8869442  MISS:      68582  HIT %:    99.2327  MISS %:   0.767306   MPKI: 1.37164
ITLB TRANSLATION FROM L1D PREFETCHER ACCESS:     970110  HIT:     844844  MISS:     125266  HIT %:    87.0874  MISS %:    12.9126   MPKI: 2.50532
ITLB PREFETCH  REQUESTED:          0  ISSUED:          0  USEFUL:     103475  USELESS:      21801
ITLB USEFUL LOAD PREFETCHES:     103475 PREFETCH ISSUED TO LOWER LEVEL:          0  ACCURACY: inf
ITLB TIMELY PREFETCHES:     103475 LATE PREFETCHES: 666 DROPPED PREFETCHES: 8292
ITLB PREFETCHES SAME FILL-ORIGIN LEVEL: 0 DIFFERENT FILL-ORIGIN LEVEL: 0
ITLB AVERAGE MISS LATENCY: 202182 cycles
ITLB RQ	ACCESS:   12987368	FORWARD:          0	MERGED:    3044105	TO_CACHE:    9943263

DTLB TOTAL     ACCESS:   10669868  HIT:    9160749  MISS:    1509119  HIT %:    85.8563  MISS %:    14.1437   MPKI: 30.1824
DTLB LOAD TRANSLATION ACCESS:   10669868  HIT:    9160749  MISS:    1509119  HIT %:    85.8563  MISS %:    14.1437   MPKI: 30.1824
DTLB PREFETCH  REQUESTED:          0  ISSUED:          0  USEFUL:          0  USELESS:          0
DTLB USEFUL LOAD PREFETCHES:          0 PREFETCH ISSUED TO LOWER LEVEL:          0  ACCURACY: -nan
DTLB TIMELY PREFETCHES:          0 LATE PREFETCHES: 0 DROPPED PREFETCHES: 0
DTLB PREFETCHES SAME FILL-ORIGIN LEVEL: 0 DIFFERENT FILL-ORIGIN LEVEL: 0
DTLB AVERAGE MISS LATENCY: 11.5137 cycles
DTLB RQ	ACCESS:   13829336	FORWARD:          0	MERGED:    3127297	TO_CACHE:   10702039

STLB TOTAL     ACCESS:    1702967  HIT:    1594826  MISS:     108141  HIT %:    93.6498  MISS %:    6.35015   MPKI: 2.16282
STLB LOAD TRANSLATION ACCESS:    1577036  HIT:    1490498  MISS:      86538  HIT %:    94.5126  MISS %:    5.48738   MPKI: 1.73076
STLB TRANSLATION FROM L1D PREFETCHER ACCESS:     125931  HIT:     104328  MISS:      21603  HIT %:    82.8454  MISS %:    17.1546   MPKI: 0.43206
STLB PREFETCH  REQUESTED:          0  ISSUED:          0  USEFUL:      12136  USELESS:       9534
STLB USEFUL LOAD PREFETCHES:      12136 PREFETCH ISSUED TO LOWER LEVEL:          0  ACCURACY: inf
STLB TIMELY PREFETCHES:      12136 LATE PREFETCHES: 0 DROPPED PREFETCHES: 8293
STLB PREFETCHES SAME FILL-ORIGIN LEVEL: 0 DIFFERENT FILL-ORIGIN LEVEL: 0
STLB AVERAGE MISS LATENCY: 49.1251 cycles
STLB RQ	ACCESS:    1711260	FORWARD:          0	MERGED:          0	TO_CACHE:    1711260

STLB Hit, L1D data hit: 0
STLB Hit, L2C data hit: 0
STLB Hit, LLC data hit: 0
STLB Hit, LLC data miss: 0
STLB STLB hints to L2: 0
L1D TOTAL     ACCESS:   13678869  HIT:   11632309  MISS:    2046560  HIT %:    85.0385  MISS %:    14.9615   MPKI: 40.9312
L1D LOAD      ACCESS:    8984422  HIT:    7036085  MISS:    1948337  HIT %:    78.3143  MISS %:    21.6857   MPKI: 38.9667
L1D RFO       ACCESS:    4694447  HIT:    4596224  MISS:      98223  HIT %:    97.9077  MISS %:    2.09232   MPKI: 1.96446
L1D PREFETCH  REQUESTED:          0  ISSUED:          0  USEFUL:          0  USELESS:          0
L1D USEFUL LOAD PREFETCHES:          0 PREFETCH ISSUED TO LOWER LEVEL:          0  ACCURACY: -nan
L1D TIMELY PREFETCHES:          0 LATE PREFETCHES: 0 DROPPED PREFETCHES: 0
L1D PREFETCHES SAME FILL-ORIGIN LEVEL: 0 DIFFERENT FILL-ORIGIN LEVEL: 0
L1D AVERAGE MISS LATENCY: 25.352 cycles
L1D RQ	ACCESS:   12436433	FORWARD:          0	MERGED:    3332133	TO_CACHE:    9019404
L1D WQ	ACCESS:    4946118	FORWARD:      84896	MERGED:     136186	TO_CACHE:    4809932

L1D UNIQUE REGIONS ACCESSED: 0
L1D REGIONS CONFLICTS: 0
L1D Cross Page Prefetch Requests: 0
L1D Same Page Prefetch Requests: 0
L1D ROI Sum of L1D PQ occupancy: 0
L1D PREFETCHES PUSHED FROM L2C: 0
L1I TOTAL     ACCESS:   12843990  HIT:   11190102  MISS:    1653888  HIT %:    87.1233  MISS %:    12.8767   MPKI: 33.0778
L1I LOAD      ACCESS:   10545270  HIT:   10296626  MISS:     248644  HIT %:    97.6421  MISS %:    2.35787   MPKI: 4.97288
L1I PREFETCH  ACCESS:    2298720  HIT:     893476  MISS:    1405244  HIT %:    38.8684  MISS %:    61.1316   MPKI: 28.1049
L1I PREFETCH  REQUESTED:    2517337  ISSUED:    2509132  USEFUL:     897615  USELESS:     507569
L1I USEFUL LOAD PREFETCHES:     897615 PREFETCH ISSUED TO LOWER LEVEL:    1435694  ACCURACY: 62.5213
L1I TIMELY PREFETCHES:     897615 LATE PREFETCHES: 30450 DROPPED PREFETCHES: 20918
L1I PREFETCHES SAME FILL-ORIGIN LEVEL: 1435694 DIFFERENT FILL-ORIGIN LEVEL: 0
L1I AVERAGE MISS LATENCY: 1.07295e+06 cycles
L1I RQ	ACCESS:   15273371	FORWARD:          0	MERGED:    4704513	TO_CACHE:   10568858
L1I PQ	ACCESS:    2509132	FORWARD:          0	MERGED:      90622	TO_CACHE:    2418510

BTB TOTAL     ACCESS:    6734670  HIT:    5946798  MISS:     787872  HIT %:    88.3013  MISS %:    11.6987   MPKI: 15.7574
BTB BRANCH_DIRECT_JUMP	ACCESS:     551642  HIT:     494500  MISS:      57142
BTB BRANCH_INDIRECT	ACCESS:     139368  HIT:     102277  MISS:      37091
BTB BRANCH_CONDITIONAL	ACCESS:    4079633  HIT:    3873989  MISS:     205644
BTB BRANCH_DIRECT_CALL	ACCESS:     776072  HIT:     672148  MISS:     103924
BTB BRANCH_INDIRECT_CALL	ACCESS:     194644  HIT:     163518  MISS:      31126
BTB BRANCH_RETURN	ACCESS:     993311  HIT:     640366  MISS:     352945
BTB BRANCH_OTHER ACCESS:          0  HIT:          0  MISS:          0

L2C TOTAL     ACCESS:    4322251  HIT:    3334116  MISS:     988135  HIT %:    77.1384  MISS %:    22.8616   MPKI: 19.7627
L2C LOAD      ACCESS:    2166518  HIT:    1809892  MISS:     356626  HIT %:    83.5392  MISS %:    16.4608   MPKI: 7.13252
L2C DATA LOAD MPKI: 5.26936
L2C INSTRUCTION LOAD MPKI: 1.86316
L2C RFO       ACCESS:      98222  HIT:      47687  MISS:      50535  HIT %:    48.5502  MISS %:    51.4498   MPKI: 1.0107
L2C PREFETCH  ACCESS:    1690891  HIT:    1186809  MISS:     504082  HIT %:    70.1884  MISS %:    29.8116   MPKI: 10.0816
L2C DATA PREFETCH MPKI: 0.30936
L2C INSTRUCTION PREFETCH MPKI: 9.77228
L2C WRITEBACK ACCESS:     215018  HIT:     193863  MISS:      21155  HIT %:    90.1613  MISS %:    9.83871   MPKI: 0.4231
L2C LOAD TRANSLATION ACCESS:     112937  HIT:      65742  MISS:      47195  HIT %:    58.2112  MISS %:    41.7888   MPKI: 0.9439
L2C TRANSLATION FROM L1D PREFETCHER ACCESS:      38665  HIT:      30123  MISS:       8542  HIT %:    77.9077  MISS %:    22.0923   MPKI: 0.17084
L2C PREFETCH  REQUESTED:     274854  ISSUED:     274843  USEFUL:      26118  USELESS:     486546
L2C USEFUL LOAD PREFETCHES:      26118 PREFETCH ISSUED TO LOWER LEVEL:     519737  ACCURACY: 5.02523
L2C TIMELY PREFETCHES:      26118 LATE PREFETCHES: 2676 DROPPED PREFETCHES: 0
L2C PREFETCHES SAME FILL-ORIGIN LEVEL: 18144 DIFFERENT FILL-ORIGIN LEVEL: 12979
L2C AVERAGE MISS LATENCY: 48.499 cycles
L2C RQ	ACCESS:    2416356	FORWARD:          0	MERGED:          0	TO_CACHE:    2416342
L2C WQ	ACCESS:     215018	FORWARD:         14	MERGED:          0	TO_CACHE:     215018
L2C PQ	ACCESS:    1710537	FORWARD:          0	MERGED:        655	TO_CACHE:    1709882

L2C Instructions Evicting Data 205088
L2C Translations Evicting Data 19592
L2C Data Evicting Data 118444
L2C Instructions Evicting Instructions 344256
L2C Translations Evicting Instructions 32899
L2C Data Evicting Instructions 192059
L2C Instructions Evicting Translations 32428
L2C Translations Evicting Translations 3246
L2C Data Evicting Translations 18968
L2C Dense regions hint from L2: 0
PSCL5 TOTAL     ACCESS:     116434  HIT:     116434  MISS:          0  HIT %:        100  MISS %:          0   MPKI: 0
PSCL5 LOAD TRANSLATION ACCESS:      86538  HIT:      86538  MISS:          0  HIT %:        100  MISS %:          0   MPKI: 0
PSCL5 TRANSLATION FROM L1D PREFETCHER ACCESS:      29896  HIT:      29896  MISS:          0  HIT %:        100  MISS %:          0   MPKI: 0
PSCL5 PREFETCH  REQUESTED:          0  ISSUED:          0  USEFUL:          0  USELESS:          0
PSCL5 USEFUL LOAD PREFETCHES:          0 PREFETCH ISSUED TO LOWER LEVEL:          0  ACCURACY: -nan
PSCL5 TIMELY PREFETCHES:          0 LATE PREFETCHES: 0 DROPPED PREFETCHES: 0
PSCL5 PREFETCHES SAME FILL-ORIGIN LEVEL: 0 DIFFERENT FILL-ORIGIN LEVEL: 0

PSCL4 TOTAL     ACCESS:     110292  HIT:     110022  MISS:        270  HIT %:    99.7552  MISS %:   0.244805   MPKI: 0.0054
PSCL4 LOAD TRANSLATION ACCESS:      84007  HIT:      83737  MISS:        270  HIT %:    99.6786  MISS %:   0.321402   MPKI: 0.0054
PSCL4 TRANSLATION FROM L1D PREFETCHER ACCESS:      26285  HIT:      26285  MISS:          0  HIT %:        100  MISS %:          0   MPKI: 0
PSCL4 PREFETCH  REQUESTED:          0  ISSUED:          0  USEFUL:          0  USELESS:          0
PSCL4 USEFUL LOAD PREFETCHES:          0 PREFETCH ISSUED TO LOWER LEVEL:          0  ACCURACY: -nan
PSCL4 TIMELY PREFETCHES:          0 LATE PREFETCHES: 0 DROPPED PREFETCHES: 0
PSCL4 PREFETCHES SAME FILL-ORIGIN LEVEL: 0 DIFFERENT FILL-ORIGIN LEVEL: 0

PSCL3 TOTAL     ACCESS:     114783  HIT:     114131  MISS:        652  HIT %:     99.432  MISS %:   0.568028   MPKI: 0.01304
PSCL3 LOAD TRANSLATION ACCESS:      86175  HIT:      85523  MISS:        652  HIT %:    99.2434  MISS %:     0.7566   MPKI: 0.01304
PSCL3 TRANSLATION FROM L1D PREFETCHER ACCESS:      28608  HIT:      28608  MISS:          0  HIT %:        100  MISS %:          0   MPKI: 0
PSCL3 PREFETCH  REQUESTED:          0  ISSUED:          0  USEFUL:          0  USELESS:          0
PSCL3 USEFUL LOAD PREFETCHES:          0 PREFETCH ISSUED TO LOWER LEVEL:          0  ACCURACY: -nan
PSCL3 TIMELY PREFETCHES:          0 LATE PREFETCHES: 0 DROPPED PREFETCHES: 0
PSCL3 PREFETCHES SAME FILL-ORIGIN LEVEL: 0 DIFFERENT FILL-ORIGIN LEVEL: 0

PSCL2 TOTAL     ACCESS:     111810  HIT:      83103  MISS:      28707  HIT %:    74.3252  MISS %:    25.6748   MPKI: 0.57414
PSCL2 LOAD TRANSLATION ACCESS:      89547  HIT:      60840  MISS:      28707  HIT %:     67.942  MISS %:     32.058   MPKI: 0.57414
PSCL2 TRANSLATION FROM L1D PREFETCHER ACCESS:      22263  HIT:      22263  MISS:          0  HIT %:        100  MISS %:          0   MPKI: 0
PSCL2 PREFETCH  REQUESTED:          0  ISSUED:          0  USEFUL:          0  USELESS:          0
PSCL2 USEFUL LOAD PREFETCHES:          0 PREFETCH ISSUED TO LOWER LEVEL:          0  ACCURACY: -nan
PSCL2 TIMELY PREFETCHES:          0 LATE PREFETCHES: 0 DROPPED PREFETCHES: 0
PSCL2 PREFETCHES SAME FILL-ORIGIN LEVEL: 0 DIFFERENT FILL-ORIGIN LEVEL: 0

LLC TOTAL     ACCESS:    1094016  HIT:     969887  MISS:     124129  HIT %:    88.6538  MISS %:    11.3462   MPKI: 2.48258
LLC LOAD      ACCESS:     353950  HIT:     293971  MISS:      59979  HIT %:    83.0544  MISS %:    16.9456   MPKI: 1.19958
LLC RFO       ACCESS:      50535  HIT:      33060  MISS:      17475  HIT %:      65.42  MISS %:      34.58   MPKI: 0.3495
LLC PREFETCH  ACCESS:     519580  HIT:     478448  MISS:      41132  HIT %:    92.0836  MISS %:    7.91639   MPKI: 0.82264
LLC WRITEBACK ACCESS:     114214  HIT:     111389  MISS:       2825  HIT %:    97.5266  MISS %:    2.47343   MPKI: 0.0565
LLC LOAD TRANSLATION ACCESS:      47195  HIT:      44592  MISS:       2603  HIT %:    94.4846  MISS %:    5.51541   MPKI: 0.05206
LLC TRANSLATION FROM L1D PREFETCHER ACCESS:       8542  HIT:       8427  MISS:        115  HIT %:    98.6537  MISS %:    1.34629   MPKI: 0.0023
LLC PREFETCH  REQUESTED:          0  ISSUED:          0  USEFUL:       3126  USELESS:      36594
LLC USEFUL LOAD PREFETCHES:       3126 PREFETCH ISSUED TO LOWER LEVEL:      41263  ACCURACY: 7.57579
LLC TIMELY PREFETCHES:       3126 LATE PREFETCHES: 131 DROPPED PREFETCHES: 0
LLC PREFETCHES SAME FILL-ORIGIN LEVEL: 5989 DIFFERENT FILL-ORIGIN LEVEL: 0
LLC AVERAGE MISS LATENCY: 161.674 cycles
LLC RQ	ACCESS:     460222	FORWARD:          0	MERGED:          0	TO_CACHE:     460222
LLC WQ	ACCESS:     114214	FORWARD:          0	MERGED:          0	TO_CACHE:     114214
LLC PQ	ACCESS:     519737	FORWARD:          0	MERGED:          3	TO_CACHE:     519734

LLC Dense regions hint to LLC: 0

RAW hits: 1026627
Loads Generated: 13463062
Loads sent to L1D: 12436433
Stores Generated: 4946117
Stores sent to L1D: 4946118
Major fault: 0 Minor fault: 7942
Allocated PAGES: 7942
I-Shadow cache 408 bytes
Touched + WorthPF tables 6144 bytes 
MMA filter 174 bytes 
FNL filter 272 bytes 
TOTAL PREFETCHER STORAGE SIZE: 25174 bytes
CPU 0 L1I next line prefetcher final stats
------------------
Depth Distribution
------------------
depth 0: 41785
depth 1: 575478
depth 2: 222697
depth 3: 169621
depth 4: 418
depth 5: 20
depth 6: 86
depth 7: 119
depth 8: 0
depth 9: 0
depth 10: 0
depth 11: 0
depth 12: 0
depth 13: 0
depth 14: 0
depth 15: 0
depth 16: 0
depth 17: 0
depth 18: 0
depth 19: 0
depth 20: 0
depth 21: 0
depth 22: 0
depth 23: 0
depth 24: 0
depth 25: 0
depth 26: 0
depth 27: 0
depth 28: 0
depth 29: 0
Total: 1010224
------------------
ST read accesses: 400072
ST write accesses: 588081
PT read accesses: 12509924
PT write accesses: 490665
FILTER read accesses: 4624618
FILTER write accesses: 2366323
GHR read accesses: 10422187
GHR write accesses: 1046851
PERC read accesses: 90749277
PERC write accesses: 901436
GHR counter read accesses: 1976306
GHR counter write accesses: 1314936
GHR ip read accesses: 3944202
GHR ip write accesses: 3952612
ST tag read accesses: 43029299
ST tag write accesses: 10155838

DRAM Statistics
 CHANNEL 0
 RQ ROW_BUFFER_HIT:      25987  ROW_BUFFER_MISS:      95315
 DBUS_CONGESTED:         87
 WQ ROW_BUFFER_HIT:       9365  ROW_BUFFER_MISS:      39801  FULL:          0

 AVG_CONGESTED_CYCLE: 4
 All warmup complete: 2
Channel 0 Bank busy for read cycles: 0
Channel 0 Bank busy for write cycles: 0
Channel 0
Rank 0
0banks busy for read cycles: 82657565
0banks busy for write cycles: 21276
1banks busy for read cycles: 6628187
1banks busy for write cycles: 2946404
2banks busy for read cycles: 1790266
2banks busy for write cycles: 885801
3banks busy for read cycles: 604569
3banks busy for write cycles: 360475
4banks busy for read cycles: 275064
4banks busy for write cycles: 197430
5banks busy for read cycles: 156950
5banks busy for write cycles: 135191
6banks busy for read cycles: 143296
6banks busy for write cycles: 103907
7banks busy for read cycles: 64710
7banks busy for write cycles: 94907
8banks busy for read cycles: 50966
8banks busy for write cycles: 156885

CPU 0 Branch Prediction Accuracy: 98.1603% MPKI: 3.89124 Average ROB Occupancy at Mispredict: 40.2619
Branch types
NOT_BRANCH: 39423761 78.8475%
BRANCH_DIRECT_JUMP: 551642 1.10328%
BRANCH_INDIRECT: 139368 0.278736%
BRANCH_CONDITIONAL: 7920860 15.8417%
BRANCH_DIRECT_CALL: 776072 1.55214%
BRANCH_INDIRECT_CALL: 194644 0.389288%
BRANCH_RETURN: 993311 1.98662%
BRANCH_OTHER: 0 0%

DRAM PAGES: 1048576
Allocated PAGES: 7942
