Initialize SIGNATURE TABLE
ST_SET: 1
ST_WAY: 256
ST_TAG_BIT: 16
ST_TAG_MASK: ffff

Initialize PATTERN TABLE
PT_SET: 512
PT_WAY: 4
SIG_DELTA_BIT: 7
C_SIG_BIT: 4
C_DELTA_BIT: 4

Initialize PREFETCH FILTER
FILTER_SET: 1024

*** ChampSim Multicore Out-of-Order Simulator ***

Warmup Instructions: 50000000
Simulation Instructions: 50000000
Number of CPUs: 1
LLC sets: 2048
LLC ways: 16
Off-chip DRAM Size: 4096 MB Channels: 1 Width: 64-bit Data Rate: 6400 MT/s
CPU 0 runs ../IPC-traces//server_004.champsimtrace.xz
.xz
BTB has LRU replacement policy
ITLB has LRU replacement policy
DTLB has LRU replacement policy
STLB has LRU replacement policy
CPU 0 L1I next line prefetcher
L1I has LRU replacement policy
L1D has LRU replacement policy
Initialize SRRIP state for L2C
Initialize DRRIP state for LLC
Heartbeat CPU 0 instructions: 10000002 cycles: 2773108 heartbeat IPC: 3.60606 cumulative IPC: 3.60606 (Simulation time: 0 hr 3 min 1 sec) 
Heartbeat CPU 0 instructions: 20000002 cycles: 5586149 heartbeat IPC: 3.55487 cumulative IPC: 3.58028 (Simulation time: 0 hr 5 min 30 sec) 
Heartbeat CPU 0 instructions: 30000000 cycles: 9726682 heartbeat IPC: 2.41515 cumulative IPC: 3.0843 (Simulation time: 0 hr 8 min 38 sec) 
Heartbeat CPU 0 instructions: 40000003 cycles: 12865357 heartbeat IPC: 3.18606 cumulative IPC: 3.10912 (Simulation time: 0 hr 11 min 0 sec) 
Heartbeat CPU 0 instructions: 50000003 cycles: 15631901 heartbeat IPC: 3.61462 cumulative IPC: 3.19859 (Simulation time: 0 hr 12 min 59 sec) 

Warmup complete CPU 0 instructions: 50000003 cycles: 15631901 (Simulation time: 0 hr 12 min 59 sec) 

Heartbeat CPU 0 instructions: 60000002 cycles: 31137552 heartbeat IPC: 0.644926 cumulative IPC: 0.644926 (Simulation time: 0 hr 15 min 35 sec) 
Heartbeat CPU 0 instructions: 70000000 cycles: 46150540 heartbeat IPC: 0.66609 cumulative IPC: 0.655337 (Simulation time: 0 hr 18 min 7 sec) 
Heartbeat CPU 0 instructions: 80000001 cycles: 74029298 heartbeat IPC: 0.358696 cumulative IPC: 0.513721 (Simulation time: 0 hr 21 min 59 sec) 
Heartbeat CPU 0 instructions: 90000000 cycles: 97392421 heartbeat IPC: 0.428025 cumulative IPC: 0.489234 (Simulation time: 0 hr 24 min 54 sec) 
Heartbeat CPU 0 instructions: 100000002 cycles: 113181642 heartbeat IPC: 0.633344 cumulative IPC: 0.512559 (Simulation time: 0 hr 29 min 5 sec) 
Finished CPU 0 instructions: 50000000 cycles: 97549743 cumulative IPC: 0.512559 (Simulation time: 0 hr 29 min 5 sec) 

ChampSim completed all CPUs

Region of Interest Statistics

CPU 0 cumulative IPC: 0.512559 instructions: 50000000 cycles: 97549743

CPU 0 Average Load ROB stall cycles: 3.21983e+07
CPU 0 Fraction of times ROB stalled by Loads: 49.5353
CPU 0 Percentage of Load stall cycles in Total stall cycles: 3.16801e+08
Issued all: 35805025
Issued LT all: 30445638
rob_not_full_when_issued_lt_all: 21612622
Issued LT one: 24265389
rob_not_full_when_issued_lt_one: 16255422
FVP critical_dynamic_instances_0: 3945567
FVP unique_critical_ips_0: 25072
 Total stall cycles: 82460167
 Total load stall cycles: 261234371182805
Unique Load IPs: 67442
CPU 0 NUM of IPS identified critical: 0
CPU 0 Num of Load IPs stalling ROB: 0
Threshold modification factor: 0
Trouble in retire width: -nan
MaC = Marked as critical.
lt_50_percent_before_Mac: 0
gt_90_percent_before_Mac: 0
gt_75_percent_before_Mac: 0
gt_50_percent_before_Mac: 0
stall_proportion_bin_same_before_after: 0
stall_proportion_bin_lower_before_after: 0
stall_proportion_bin_upper_before_after: 0
average_stall_proportion_before: -nan
average_stall_proportion_after: -nan
Critical IP stalls, total frequency: 0
Non-critical IP stalls, total frequency: 0
Total Freq all stalling IPs: 0
Critical_IP_Detector_Accuracy_70: 3.98851e-05
Critical_IP_Detector_Accuracy_80: 3.98851e-05
Critical_IP_Detector_Accuracy_90: 3.98851e-05
Critical_IP_Detector_Coverage_70: 1
Critical_IP_Detector_Coverage_80: 1
Critical_IP_Detector_Coverage_90: 1
stat_90_percent_critical_ip_stalls_freq: 713967
stat_90_percent_non_critical_ip_stalls_freq: 18446744073708837649
AVERAGE_ROB_Occupancy_90_Percent_Critical_IP_Stalls: 258.541
AVERAGE_ROB_Occupancy_90_Percent_Non_Critical_IP_Stalls: 1.91046e-11
Critical_IP_ROB_Stalls_Bucket_0: 0
Non-critical_IP_ROB_Stalls_Bucket_0: 1423892
Critical_IP_ROB_Stalls_Bucket_1: 0
Non-critical_IP_ROB_Stalls_Bucket_1: 772178
Critical_IP_ROB_Stalls_Bucket_2: 0
Non-critical_IP_ROB_Stalls_Bucket_2: 405384
Critical_IP_ROB_Stalls_Bucket_3: 0
Non-critical_IP_ROB_Stalls_Bucket_3: 285652
Critical_IP_ROB_Stalls_Bucket_4: 0
Non-critical_IP_ROB_Stalls_Bucket_4: 235433
Critical_IP_ROB_Stalls_Bucket_5: 0
Non-critical_IP_ROB_Stalls_Bucket_5: 234169
Critical_IP_ROB_Stalls_Bucket_6: 0
Non-critical_IP_ROB_Stalls_Bucket_6: 662235
0 => IPs accounting for >50 percent of stalls, 1 => 55, 2 => 60, 3 => 65 and so on till 90.
percent50: inf num IPs:  1
percent55: inf num IPs: 1
percent60: inf num IPs: 1
percent65: inf num IPs: 1
percent70: inf num IPs: 1
percent75: inf num IPs: 1
percent80: inf num IPs: 1
percent85: inf num IPs: 1
percent90: inf num IPs: 1
Critical_ROB_Stalls_Percent_0_Bucket_0: 73
Non-critical_ROB_Stalls_Percent_0_Bucket_0: 1423819
Critical_ROB_Stalls_Percent_0_Bucket_1: 14746
Non-critical_ROB_Stalls_Percent_0_Bucket_1: 757432
Critical_ROB_Stalls_Percent_0_Bucket_2: 89194
Non-critical_ROB_Stalls_Percent_0_Bucket_2: 316190
Critical_ROB_Stalls_Percent_0_Bucket_3: 105131
Non-critical_ROB_Stalls_Percent_0_Bucket_3: 180521
Critical_ROB_Stalls_Percent_0_Bucket_4: 104533
Non-critical_ROB_Stalls_Percent_0_Bucket_4: 130900
Critical_ROB_Stalls_Percent_0_Bucket_5: 108119
Non-critical_ROB_Stalls_Percent_0_Bucket_5: 126050
Critical_ROB_Stalls_Percent_0_Bucket_6: 292171
Non-critical_ROB_Stalls_Percent_0_Bucket_6: 370064
Critical_ROB_Stalls_Percent_1_Bucket_0: 73
Non-critical_ROB_Stalls_Percent_1_Bucket_0: 1423819
Critical_ROB_Stalls_Percent_1_Bucket_1: 14746
Non-critical_ROB_Stalls_Percent_1_Bucket_1: 757432
Critical_ROB_Stalls_Percent_1_Bucket_2: 89194
Non-critical_ROB_Stalls_Percent_1_Bucket_2: 316190
Critical_ROB_Stalls_Percent_1_Bucket_3: 105131
Non-critical_ROB_Stalls_Percent_1_Bucket_3: 180521
Critical_ROB_Stalls_Percent_1_Bucket_4: 104533
Non-critical_ROB_Stalls_Percent_1_Bucket_4: 130900
Critical_ROB_Stalls_Percent_1_Bucket_5: 108119
Non-critical_ROB_Stalls_Percent_1_Bucket_5: 126050
Critical_ROB_Stalls_Percent_1_Bucket_6: 292171
Non-critical_ROB_Stalls_Percent_1_Bucket_6: 370064
Critical_ROB_Stalls_Percent_2_Bucket_0: 73
Non-critical_ROB_Stalls_Percent_2_Bucket_0: 1423819
Critical_ROB_Stalls_Percent_2_Bucket_1: 14746
Non-critical_ROB_Stalls_Percent_2_Bucket_1: 757432
Critical_ROB_Stalls_Percent_2_Bucket_2: 89194
Non-critical_ROB_Stalls_Percent_2_Bucket_2: 316190
Critical_ROB_Stalls_Percent_2_Bucket_3: 105131
Non-critical_ROB_Stalls_Percent_2_Bucket_3: 180521
Critical_ROB_Stalls_Percent_2_Bucket_4: 104533
Non-critical_ROB_Stalls_Percent_2_Bucket_4: 130900
Critical_ROB_Stalls_Percent_2_Bucket_5: 108119
Non-critical_ROB_Stalls_Percent_2_Bucket_5: 126050
Critical_ROB_Stalls_Percent_2_Bucket_6: 292171
Non-critical_ROB_Stalls_Percent_2_Bucket_6: 370064
Critical_ROB_Stalls_Percent_3_Bucket_0: 73
Non-critical_ROB_Stalls_Percent_3_Bucket_0: 1423819
Critical_ROB_Stalls_Percent_3_Bucket_1: 14746
Non-critical_ROB_Stalls_Percent_3_Bucket_1: 757432
Critical_ROB_Stalls_Percent_3_Bucket_2: 89194
Non-critical_ROB_Stalls_Percent_3_Bucket_2: 316190
Critical_ROB_Stalls_Percent_3_Bucket_3: 105131
Non-critical_ROB_Stalls_Percent_3_Bucket_3: 180521
Critical_ROB_Stalls_Percent_3_Bucket_4: 104533
Non-critical_ROB_Stalls_Percent_3_Bucket_4: 130900
Critical_ROB_Stalls_Percent_3_Bucket_5: 108119
Non-critical_ROB_Stalls_Percent_3_Bucket_5: 126050
Critical_ROB_Stalls_Percent_3_Bucket_6: 292171
Non-critical_ROB_Stalls_Percent_3_Bucket_6: 370064
Critical_ROB_Stalls_Percent_4_Bucket_0: 73
Non-critical_ROB_Stalls_Percent_4_Bucket_0: 1423819
Critical_ROB_Stalls_Percent_4_Bucket_1: 14746
Non-critical_ROB_Stalls_Percent_4_Bucket_1: 757432
Critical_ROB_Stalls_Percent_4_Bucket_2: 89194
Non-critical_ROB_Stalls_Percent_4_Bucket_2: 316190
Critical_ROB_Stalls_Percent_4_Bucket_3: 105131
Non-critical_ROB_Stalls_Percent_4_Bucket_3: 180521
Critical_ROB_Stalls_Percent_4_Bucket_4: 104533
Non-critical_ROB_Stalls_Percent_4_Bucket_4: 130900
Critical_ROB_Stalls_Percent_4_Bucket_5: 108119
Non-critical_ROB_Stalls_Percent_4_Bucket_5: 126050
Critical_ROB_Stalls_Percent_4_Bucket_6: 292171
Non-critical_ROB_Stalls_Percent_4_Bucket_6: 370064
Critical_ROB_Stalls_Percent_5_Bucket_0: 73
Non-critical_ROB_Stalls_Percent_5_Bucket_0: 1423819
Critical_ROB_Stalls_Percent_5_Bucket_1: 14746
Non-critical_ROB_Stalls_Percent_5_Bucket_1: 757432
Critical_ROB_Stalls_Percent_5_Bucket_2: 89194
Non-critical_ROB_Stalls_Percent_5_Bucket_2: 316190
Critical_ROB_Stalls_Percent_5_Bucket_3: 105131
Non-critical_ROB_Stalls_Percent_5_Bucket_3: 180521
Critical_ROB_Stalls_Percent_5_Bucket_4: 104533
Non-critical_ROB_Stalls_Percent_5_Bucket_4: 130900
Critical_ROB_Stalls_Percent_5_Bucket_5: 108119
Non-critical_ROB_Stalls_Percent_5_Bucket_5: 126050
Critical_ROB_Stalls_Percent_5_Bucket_6: 292171
Non-critical_ROB_Stalls_Percent_5_Bucket_6: 370064
Critical_ROB_Stalls_Percent_6_Bucket_0: 73
Non-critical_ROB_Stalls_Percent_6_Bucket_0: 1423819
Critical_ROB_Stalls_Percent_6_Bucket_1: 14746
Non-critical_ROB_Stalls_Percent_6_Bucket_1: 757432
Critical_ROB_Stalls_Percent_6_Bucket_2: 89194
Non-critical_ROB_Stalls_Percent_6_Bucket_2: 316190
Critical_ROB_Stalls_Percent_6_Bucket_3: 105131
Non-critical_ROB_Stalls_Percent_6_Bucket_3: 180521
Critical_ROB_Stalls_Percent_6_Bucket_4: 104533
Non-critical_ROB_Stalls_Percent_6_Bucket_4: 130900
Critical_ROB_Stalls_Percent_6_Bucket_5: 108119
Non-critical_ROB_Stalls_Percent_6_Bucket_5: 126050
Critical_ROB_Stalls_Percent_6_Bucket_6: 292171
Non-critical_ROB_Stalls_Percent_6_Bucket_6: 370064
Critical_ROB_Stalls_Percent_7_Bucket_0: 73
Non-critical_ROB_Stalls_Percent_7_Bucket_0: 1423819
Critical_ROB_Stalls_Percent_7_Bucket_1: 14746
Non-critical_ROB_Stalls_Percent_7_Bucket_1: 757432
Critical_ROB_Stalls_Percent_7_Bucket_2: 89194
Non-critical_ROB_Stalls_Percent_7_Bucket_2: 316190
Critical_ROB_Stalls_Percent_7_Bucket_3: 105131
Non-critical_ROB_Stalls_Percent_7_Bucket_3: 180521
Critical_ROB_Stalls_Percent_7_Bucket_4: 104533
Non-critical_ROB_Stalls_Percent_7_Bucket_4: 130900
Critical_ROB_Stalls_Percent_7_Bucket_5: 108119
Non-critical_ROB_Stalls_Percent_7_Bucket_5: 126050
Critical_ROB_Stalls_Percent_7_Bucket_6: 292171
Non-critical_ROB_Stalls_Percent_7_Bucket_6: 370064
Critical_ROB_Stalls_Percent_8_Bucket_0: 73
Non-critical_ROB_Stalls_Percent_8_Bucket_0: 1423819
Critical_ROB_Stalls_Percent_8_Bucket_1: 14746
Non-critical_ROB_Stalls_Percent_8_Bucket_1: 757432
Critical_ROB_Stalls_Percent_8_Bucket_2: 89194
Non-critical_ROB_Stalls_Percent_8_Bucket_2: 316190
Critical_ROB_Stalls_Percent_8_Bucket_3: 105131
Non-critical_ROB_Stalls_Percent_8_Bucket_3: 180521
Critical_ROB_Stalls_Percent_8_Bucket_4: 104533
Non-critical_ROB_Stalls_Percent_8_Bucket_4: 130900
Critical_ROB_Stalls_Percent_8_Bucket_5: 108119
Non-critical_ROB_Stalls_Percent_8_Bucket_5: 126050
Critical_ROB_Stalls_Percent_8_Bucket_6: 292171
Non-critical_ROB_Stalls_Percent_8_Bucket_6: 370064
Average ROB occupancy Load Stall Begin: 126.04
Average ROB occupancy Load Stall End: 133.619
Min ROB occupancy Load Stall Begin: 1
Max ROB occupancy Load Stall Begin: 352
Min ROB occupancy Load Stall End: 1
Max ROB occupancy Load Stall End: 352
Average ROB occupancy Critical Load Stall Begin: -nan
Average ROB occupancy Critical Load Stall End: -nan
Min ROB occupancy Critical Load Stall Begin: 400
Max ROB occupancy Critical Load Stall Begin: 0
Min ROB occupancy Critical Load Stall End: 400
Max ROB occupancy Critical Load Stall End: 0
 ROB Load Stall Begin Bucket Count 0: 1703889
 ROB Load Stall End Bucket Count 0: 1423892
 ROB Critical Load Stall Begin Bucket Count 0: 0
 ROB Critical Load Stall End Bucket Count 0: 0
 ROB Load Stall Begin Bucket Count 1: 598242
 ROB Load Stall End Bucket Count 1: 772178
 ROB Critical Load Stall Begin Bucket Count 1: 0
 ROB Critical Load Stall End Bucket Count 1: 0
 ROB Load Stall Begin Bucket Count 2: 351577
 ROB Load Stall End Bucket Count 2: 405384
 ROB Critical Load Stall Begin Bucket Count 2: 0
 ROB Critical Load Stall End Bucket Count 2: 0
 ROB Load Stall Begin Bucket Count 3: 259978
 ROB Load Stall End Bucket Count 3: 285652
 ROB Critical Load Stall Begin Bucket Count 3: 0
 ROB Critical Load Stall End Bucket Count 3: 0
 ROB Load Stall Begin Bucket Count 4: 231245
 ROB Load Stall End Bucket Count 4: 235433
 ROB Critical Load Stall Begin Bucket Count 4: 0
 ROB Critical Load Stall End Bucket Count 4: 0
 ROB Load Stall Begin Bucket Count 5: 226329
 ROB Load Stall End Bucket Count 5: 234169
 ROB Critical Load Stall Begin Bucket Count 5: 0
 ROB Critical Load Stall End Bucket Count 5: 0
 ROB Load Stall Begin Bucket Count 6: 647684
 ROB Load Stall End Bucket Count 6: 662235
 ROB Critical Load Stall Begin Bucket Count 6: 0
 ROB Critical Load Stall End Bucket Count 6: 0
PIST Tag Read Accesses: 0
PIST Read Accesses: 0
PIST Tag Write Accesses: 0
PIST Write Accesses: 0
Criticality detector called times: 0
Max global_stall_cycles_count: 0
Threshold Modified: 0 times, factor: 0
ITLB TOTAL     ACCESS:    9915766  HIT:    9719913  MISS:     195853  HIT %:    98.0248  MISS %:    1.97517   MPKI: 3.91706
ITLB LOAD TRANSLATION ACCESS:    8939724  HIT:    8871146  MISS:      68578  HIT %:    99.2329  MISS %:   0.767115   MPKI: 1.37156
ITLB TRANSLATION FROM L1D PREFETCHER ACCESS:     976042  HIT:     848767  MISS:     127275  HIT %:    86.9601  MISS %:    13.0399   MPKI: 2.5455
ITLB PREFETCH  REQUESTED:          0  ISSUED:          0  USEFUL:     104215  USELESS:      23069
ITLB USEFUL LOAD PREFETCHES:     104215 PREFETCH ISSUED TO LOWER LEVEL:          0  ACCURACY: inf
ITLB TIMELY PREFETCHES:     104215 LATE PREFETCHES: 622 DROPPED PREFETCHES: 10822
ITLB PREFETCHES SAME FILL-ORIGIN LEVEL: 0 DIFFERENT FILL-ORIGIN LEVEL: 0
ITLB AVERAGE MISS LATENCY: 195828 cycles
ITLB RQ	ACCESS:   13026445	FORWARD:          0	MERGED:    3071011	TO_CACHE:    9955434

DTLB TOTAL     ACCESS:   10666341  HIT:    9157237  MISS:    1509104  HIT %:    85.8517  MISS %:    14.1483   MPKI: 30.1821
DTLB LOAD TRANSLATION ACCESS:   10666341  HIT:    9157237  MISS:    1509104  HIT %:    85.8517  MISS %:    14.1483   MPKI: 30.1821
DTLB PREFETCH  REQUESTED:          0  ISSUED:          0  USEFUL:          0  USELESS:          0
DTLB USEFUL LOAD PREFETCHES:          0 PREFETCH ISSUED TO LOWER LEVEL:          0  ACCURACY: -nan
DTLB TIMELY PREFETCHES:          0 LATE PREFETCHES: 0 DROPPED PREFETCHES: 0
DTLB PREFETCHES SAME FILL-ORIGIN LEVEL: 0 DIFFERENT FILL-ORIGIN LEVEL: 0
DTLB AVERAGE MISS LATENCY: 11.5043 cycles
DTLB RQ	ACCESS:   13825193	FORWARD:          0	MERGED:    3126702	TO_CACHE:   10698491

STLB TOTAL     ACCESS:    1704957  HIT:    1596428  MISS:     108529  HIT %:    93.6345  MISS %:     6.3655   MPKI: 2.17058
STLB LOAD TRANSLATION ACCESS:    1577061  HIT:    1489749  MISS:      87312  HIT %:    94.4636  MISS %:    5.53637   MPKI: 1.74624
STLB TRANSLATION FROM L1D PREFETCHER ACCESS:     127896  HIT:     106679  MISS:      21217  HIT %:    83.4107  MISS %:    16.5893   MPKI: 0.42434
STLB PREFETCH  REQUESTED:          0  ISSUED:          0  USEFUL:      12327  USELESS:       8944
STLB USEFUL LOAD PREFETCHES:      12327 PREFETCH ISSUED TO LOWER LEVEL:          0  ACCURACY: inf
STLB TIMELY PREFETCHES:      12327 LATE PREFETCHES: 0 DROPPED PREFETCHES: 10823
STLB PREFETCHES SAME FILL-ORIGIN LEVEL: 0 DIFFERENT FILL-ORIGIN LEVEL: 0
STLB AVERAGE MISS LATENCY: 48.7654 cycles
STLB RQ	ACCESS:    1715780	FORWARD:          0	MERGED:          0	TO_CACHE:    1715780

STLB Hit, L1D data hit: 0
STLB Hit, L2C data hit: 0
STLB Hit, LLC data hit: 0
STLB Hit, LLC data miss: 0
STLB STLB hints to L2: 0
L1D TOTAL     ACCESS:   13673560  HIT:   11626994  MISS:    2046566  HIT %:    85.0327  MISS %:    14.9673   MPKI: 40.9313
L1D LOAD      ACCESS:    8979550  HIT:    7031204  MISS:    1948346  HIT %:    78.3024  MISS %:    21.6976   MPKI: 38.9669
L1D RFO       ACCESS:    4694010  HIT:    4595790  MISS:      98220  HIT %:    97.9075  MISS %:    2.09245   MPKI: 1.9644
L1D PREFETCH  REQUESTED:          0  ISSUED:          0  USEFUL:          0  USELESS:          0
L1D USEFUL LOAD PREFETCHES:          0 PREFETCH ISSUED TO LOWER LEVEL:          0  ACCURACY: -nan
L1D TIMELY PREFETCHES:          0 LATE PREFETCHES: 0 DROPPED PREFETCHES: 0
L1D PREFETCHES SAME FILL-ORIGIN LEVEL: 0 DIFFERENT FILL-ORIGIN LEVEL: 0
L1D AVERAGE MISS LATENCY: 25.6885 cycles
L1D RQ	ACCESS:   12433997	FORWARD:          0	MERGED:    3333502	TO_CACHE:    9015968
L1D WQ	ACCESS:    4946118	FORWARD:      84527	MERGED:     136893	TO_CACHE:    4809225

L1D UNIQUE REGIONS ACCESSED: 0
L1D REGIONS CONFLICTS: 0
L1D Cross Page Prefetch Requests: 0
L1D Same Page Prefetch Requests: 0
L1D ROI Sum of L1D PQ occupancy: 0
L1D PREFETCHES PUSHED FROM L2C: 0
L1I TOTAL     ACCESS:   12871415  HIT:   11201379  MISS:    1670036  HIT %:    87.0252  MISS %:    12.9748   MPKI: 33.4007
L1I LOAD      ACCESS:   10546171  HIT:   10297852  MISS:     248319  HIT %:    97.6454  MISS %:    2.35459   MPKI: 4.96638
L1I PREFETCH  ACCESS:    2325244  HIT:     903527  MISS:    1421717  HIT %:    38.8573  MISS %:    61.1427   MPKI: 28.4343
L1I PREFETCH  REQUESTED:    2557903  ISSUED:    2549632  USEFUL:     901085  USELESS:     520568
L1I USEFUL LOAD PREFETCHES:     901085 PREFETCH ISSUED TO LOWER LEVEL:    1452335  ACCURACY: 62.0439
L1I TIMELY PREFETCHES:     901085 LATE PREFETCHES: 30618 DROPPED PREFETCHES: 30464
L1I PREFETCHES SAME FILL-ORIGIN LEVEL: 1452335 DIFFERENT FILL-ORIGIN LEVEL: 0
L1I AVERAGE MISS LATENCY: 1.07996e+06 cycles
L1I RQ	ACCESS:   15274241	FORWARD:          0	MERGED:    4704405	TO_CACHE:   10569836
L1I PQ	ACCESS:    2549632	FORWARD:          0	MERGED:      93023	TO_CACHE:    2456609

BTB TOTAL     ACCESS:    6734670  HIT:    5946798  MISS:     787872  HIT %:    88.3013  MISS %:    11.6987   MPKI: 15.7574
BTB BRANCH_DIRECT_JUMP	ACCESS:     551642  HIT:     494500  MISS:      57142
BTB BRANCH_INDIRECT	ACCESS:     139368  HIT:     102277  MISS:      37091
BTB BRANCH_CONDITIONAL	ACCESS:    4079633  HIT:    3873989  MISS:     205644
BTB BRANCH_DIRECT_CALL	ACCESS:     776072  HIT:     672148  MISS:     103924
BTB BRANCH_INDIRECT_CALL	ACCESS:     194644  HIT:     163518  MISS:      31126
BTB BRANCH_RETURN	ACCESS:     993311  HIT:     640366  MISS:     352945
BTB BRANCH_OTHER ACCESS:          0  HIT:          0  MISS:          0

L2C TOTAL     ACCESS:    4200964  HIT:    3221792  MISS:     979172  HIT %:    76.6917  MISS %:    23.3083   MPKI: 19.5834
L2C LOAD      ACCESS:    2166037  HIT:    1802506  MISS:     363531  HIT %:    83.2168  MISS %:    16.7832   MPKI: 7.27062
L2C DATA LOAD MPKI: 5.40968
L2C INSTRUCTION LOAD MPKI: 1.86094
L2C RFO       ACCESS:      98219  HIT:      47818  MISS:      50401  HIT %:    48.6851  MISS %:    51.3149   MPKI: 1.00802
L2C PREFETCH  ACCESS:    1565825  HIT:    1077118  MISS:     488707  HIT %:    68.7892  MISS %:    31.2108   MPKI: 9.77414
L2C DATA PREFETCH MPKI: 0.0228
L2C INSTRUCTION PREFETCH MPKI: 9.75134
L2C WRITEBACK ACCESS:     215021  HIT:     193980  MISS:      21041  HIT %:    90.2144  MISS %:    9.78556   MPKI: 0.42082
L2C LOAD TRANSLATION ACCESS:     113769  HIT:      66239  MISS:      47530  HIT %:    58.2224  MISS %:    41.7776   MPKI: 0.9506
L2C TRANSLATION FROM L1D PREFETCHER ACCESS:      42093  HIT:      34131  MISS:       7962  HIT %:    81.0847  MISS %:    18.9153   MPKI: 0.15924
L2C PREFETCH  REQUESTED:     508633  ISSUED:     508633  USEFUL:      19067  USELESS:     477672
L2C USEFUL LOAD PREFETCHES:      19067 PREFETCH ISSUED TO LOWER LEVEL:     848487  ACCURACY: 2.24718
L2C TIMELY PREFETCHES:      19067 LATE PREFETCHES: 863 DROPPED PREFETCHES: 0
L2C PREFETCHES SAME FILL-ORIGIN LEVEL: 2003 DIFFERENT FILL-ORIGIN LEVEL: 358917
L2C AVERAGE MISS LATENCY: 47.3786 cycles
L2C RQ	ACCESS:    2420129	FORWARD:          0	MERGED:          0	TO_CACHE:    2420118
L2C WQ	ACCESS:     215021	FORWARD:         11	MERGED:          0	TO_CACHE:     215021
L2C PQ	ACCESS:    1960968	FORWARD:          0	MERGED:      33450	TO_CACHE:    1927518

L2C Instructions Evicting Data 202703
L2C Translations Evicting Data 19364
L2C Data Evicting Data 113643
L2C Instructions Evicting Instructions 345252
L2C Translations Evicting Instructions 32912
L2C Data Evicting Instructions 189806
L2C Instructions Evicting Translations 32659
L2C Translations Evicting Translations 3216
L2C Data Evicting Translations 18576
L2C Dense regions hint from L2: 0
PSCL5 TOTAL     ACCESS:     119352  HIT:     119352  MISS:          0  HIT %:        100  MISS %:          0   MPKI: 0
PSCL5 LOAD TRANSLATION ACCESS:      87312  HIT:      87312  MISS:          0  HIT %:        100  MISS %:          0   MPKI: 0
PSCL5 TRANSLATION FROM L1D PREFETCHER ACCESS:      32040  HIT:      32040  MISS:          0  HIT %:        100  MISS %:          0   MPKI: 0
PSCL5 PREFETCH  REQUESTED:          0  ISSUED:          0  USEFUL:          0  USELESS:          0
PSCL5 USEFUL LOAD PREFETCHES:          0 PREFETCH ISSUED TO LOWER LEVEL:          0  ACCURACY: -nan
PSCL5 TIMELY PREFETCHES:          0 LATE PREFETCHES: 0 DROPPED PREFETCHES: 0
PSCL5 PREFETCHES SAME FILL-ORIGIN LEVEL: 0 DIFFERENT FILL-ORIGIN LEVEL: 0

PSCL4 TOTAL     ACCESS:     109810  HIT:     109555  MISS:        255  HIT %:    99.7678  MISS %:   0.232219   MPKI: 0.0051
PSCL4 LOAD TRANSLATION ACCESS:      81437  HIT:      81182  MISS:        255  HIT %:    99.6869  MISS %:   0.313125   MPKI: 0.0051
PSCL4 TRANSLATION FROM L1D PREFETCHER ACCESS:      28373  HIT:      28373  MISS:          0  HIT %:        100  MISS %:          0   MPKI: 0
PSCL4 PREFETCH  REQUESTED:          0  ISSUED:          0  USEFUL:          0  USELESS:          0
PSCL4 USEFUL LOAD PREFETCHES:          0 PREFETCH ISSUED TO LOWER LEVEL:          0  ACCURACY: -nan
PSCL4 TIMELY PREFETCHES:          0 LATE PREFETCHES: 0 DROPPED PREFETCHES: 0
PSCL4 PREFETCHES SAME FILL-ORIGIN LEVEL: 0 DIFFERENT FILL-ORIGIN LEVEL: 0

PSCL3 TOTAL     ACCESS:     117708  HIT:     117066  MISS:        642  HIT %:    99.4546  MISS %:   0.545417   MPKI: 0.01284
PSCL3 LOAD TRANSLATION ACCESS:      86899  HIT:      86257  MISS:        642  HIT %:    99.2612  MISS %:   0.738789   MPKI: 0.01284
PSCL3 TRANSLATION FROM L1D PREFETCHER ACCESS:      30809  HIT:      30809  MISS:          0  HIT %:        100  MISS %:          0   MPKI: 0
PSCL3 PREFETCH  REQUESTED:          0  ISSUED:          0  USEFUL:          0  USELESS:          0
PSCL3 USEFUL LOAD PREFETCHES:          0 PREFETCH ISSUED TO LOWER LEVEL:          0  ACCURACY: -nan
PSCL3 TIMELY PREFETCHES:          0 LATE PREFETCHES: 0 DROPPED PREFETCHES: 0
PSCL3 PREFETCHES SAME FILL-ORIGIN LEVEL: 0 DIFFERENT FILL-ORIGIN LEVEL: 0

PSCL2 TOTAL     ACCESS:     113309  HIT:      84557  MISS:      28752  HIT %:    74.6251  MISS %:    25.3749   MPKI: 0.57504
PSCL2 LOAD TRANSLATION ACCESS:      90299  HIT:      61547  MISS:      28752  HIT %:    68.1591  MISS %:    31.8409   MPKI: 0.57504
PSCL2 TRANSLATION FROM L1D PREFETCHER ACCESS:      23010  HIT:      23010  MISS:          0  HIT %:        100  MISS %:          0   MPKI: 0
PSCL2 PREFETCH  REQUESTED:          0  ISSUED:          0  USEFUL:          0  USELESS:          0
PSCL2 USEFUL LOAD PREFETCHES:          0 PREFETCH ISSUED TO LOWER LEVEL:          0  ACCURACY: -nan
PSCL2 TIMELY PREFETCHES:          0 LATE PREFETCHES: 0 DROPPED PREFETCHES: 0
PSCL2 PREFETCHES SAME FILL-ORIGIN LEVEL: 0 DIFFERENT FILL-ORIGIN LEVEL: 0

LLC TOTAL     ACCESS:    1426283  HIT:    1306479  MISS:     119804  HIT %:    91.6003  MISS %:    8.39974   MPKI: 2.39608
LLC LOAD      ACCESS:     362664  HIT:     298949  MISS:      63715  HIT %:    82.4314  MISS %:    17.5686   MPKI: 1.2743
LLC RFO       ACCESS:      50401  HIT:      32964  MISS:      17437  HIT %:    65.4035  MISS %:    34.5965   MPKI: 0.34874
LLC PREFETCH  ACCESS:     843922  HIT:     810839  MISS:      33083  HIT %:    96.0799  MISS %:    3.92015   MPKI: 0.66166
LLC WRITEBACK ACCESS:     113804  HIT:     110941  MISS:       2863  HIT %:    97.4843  MISS %:    2.51573   MPKI: 0.05726
LLC LOAD TRANSLATION ACCESS:      47530  HIT:      44951  MISS:       2579  HIT %:     94.574  MISS %:    5.42605   MPKI: 0.05158
LLC TRANSLATION FROM L1D PREFETCHER ACCESS:       7962  HIT:       7835  MISS:        127  HIT %:    98.4049  MISS %:    1.59508   MPKI: 0.00254
LLC PREFETCH  REQUESTED:          0  ISSUED:          0  USEFUL:       3090  USELESS:      27489
LLC USEFUL LOAD PREFETCHES:       3090 PREFETCH ISSUED TO LOWER LEVEL:      33569  ACCURACY: 9.20492
LLC TIMELY PREFETCHES:       3090 LATE PREFETCHES: 486 DROPPED PREFETCHES: 0
LLC PREFETCHES SAME FILL-ORIGIN LEVEL: 8342 DIFFERENT FILL-ORIGIN LEVEL: 0
LLC AVERAGE MISS LATENCY: 158.133 cycles
LLC RQ	ACCESS:     468561	FORWARD:          0	MERGED:          0	TO_CACHE:     468557
LLC WQ	ACCESS:     113804	FORWARD:          4	MERGED:          0	TO_CACHE:     113804
LLC PQ	ACCESS:     848487	FORWARD:          0	MERGED:       1679	TO_CACHE:     846808

LLC Dense regions hint to LLC: 0

RAW hits: 1029063
Loads Generated: 13463062
Loads sent to L1D: 12433997
Stores Generated: 4946117
Stores sent to L1D: 4946118
Major fault: 0 Minor fault: 7942
Allocated PAGES: 7942
I-Shadow cache 408 bytes
Touched + WorthPF tables 6144 bytes 
MMA filter 174 bytes 
FNL filter 272 bytes 
TOTAL PREFETCHER STORAGE SIZE: 25174 bytes
CPU 0 L1I next line prefetcher final stats
 All Calls: 6864829
 Critical Calls: 1010919
------------------
Depth Distribution
------------------
depth 0: 0
depth 1: 439546
depth 2: 58237
depth 3: 6916
depth 4: 2701
depth 5: 1088
depth 6: 466
depth 7: 240
depth 8: 118
depth 9: 13
depth 10: 0
depth 11: 0
depth 12: 0
depth 13: 0
depth 14: 0
depth 15: 0
depth 16: 0
depth 17: 0
depth 18: 0
depth 19: 0
depth 20: 0
depth 21: 0
depth 22: 0
depth 23: 0
depth 24: 0
depth 25: 0
depth 26: 0
depth 27: 0
depth 28: 0
depth 29: 0
Total: 509325
-----------------------------
-----------------------------
	Captured at Filter
-----------------------------
depth 0: 0
depth 1: 550768
depth 2: 515192
depth 3: 99930
depth 4: 5471
depth 5: 1758
depth 6: 0
depth 7: 0
depth 8: 0
depth 9: 0
depth 10: 0
depth 11: 0
depth 12: 0
depth 13: 0
depth 14: 0
depth 15: 0
depth 16: 0
depth 17: 0
depth 18: 0
depth 19: 0
depth 20: 0
depth 21: 0
depth 22: 0
depth 23: 0
depth 24: 0
depth 25: 0
depth 26: 0
depth 27: 0
depth 28: 0
depth 29: 0
-----------------------------
-----------------------------
		Lost at Page
-----------------------------
depth 0: 0
depth 1: 8770
depth 2: 1330
depth 3: 259
depth 4: 145
depth 5: 84
depth 6: 52
depth 7: 38
depth 8: 20
depth 9: 2
depth 10: 0
depth 11: 0
depth 12: 0
depth 13: 0
depth 14: 0
depth 15: 0
depth 16: 0
depth 17: 0
depth 18: 0
depth 19: 0
depth 20: 0
depth 21: 0
depth 22: 0
depth 23: 0
depth 24: 0
depth 25: 0
depth 26: 0
depth 27: 0
depth 28: 0
depth 29: 0
-----------------------------
-----------------------------
	Lost due to PQ Size
-----------------------------
0
-----------------------------
ST read accesses: 969265
ST write accesses: 19152
PT read accesses: 13970340
PT write accesses: 975207
FILTER read accesses: 3649335
FILTER write accesses: 995940
GHR read accesses: 211730
GHR write accesses: 10678
GHR counter read accesses: 12530942
GHR counter write accesses: 1004423
ST tag read accesses: 392785943
ST tag write accesses: 37727103

DRAM Statistics
 CHANNEL 0
 RQ ROW_BUFFER_HIT:      23585  ROW_BUFFER_MISS:      93354
 DBUS_CONGESTED:         92
 WQ ROW_BUFFER_HIT:       9605  ROW_BUFFER_MISS:      40421  FULL:          0

 AVG_CONGESTED_CYCLE: 4
 All warmup complete: 2
Channel 0 Bank busy for read cycles: 0
Channel 0 Bank busy for write cycles: 0
Channel 0
Rank 0
0banks busy for read cycles: 82749210
0banks busy for write cycles: 21984
1banks busy for read cycles: 6919581
1banks busy for write cycles: 3098256
2banks busy for read cycles: 1676417
2banks busy for write cycles: 886353
3banks busy for read cycles: 522994
3banks busy for write cycles: 348519
4banks busy for read cycles: 241474
4banks busy for write cycles: 191786
5banks busy for read cycles: 146529
5banks busy for write cycles: 134714
6banks busy for read cycles: 136076
6banks busy for write cycles: 103657
7banks busy for read cycles: 63907
7banks busy for write cycles: 96262
8banks busy for read cycles: 50481
8banks busy for write cycles: 161544

CPU 0 Branch Prediction Accuracy: 98.1603% MPKI: 3.89124 Average ROB Occupancy at Mispredict: 40.5477
Branch types
NOT_BRANCH: 39423761 78.8475%
BRANCH_DIRECT_JUMP: 551642 1.10328%
BRANCH_INDIRECT: 139368 0.278736%
BRANCH_CONDITIONAL: 7920860 15.8417%
BRANCH_DIRECT_CALL: 776072 1.55214%
BRANCH_INDIRECT_CALL: 194644 0.389288%
BRANCH_RETURN: 993311 1.98662%
BRANCH_OTHER: 0 0%

DRAM PAGES: 1048576
Allocated PAGES: 7942
