
*** ChampSim Multicore Out-of-Order Simulator ***

Warmup Instructions: 50000000
Simulation Instructions: 50000000
Number of CPUs: 1
LLC sets: 2048
LLC ways: 16
Off-chip DRAM Size: 4096 MB Channels: 1 Width: 64-bit Data Rate: 6400 MT/s
CPU 0 runs ../IPC-traces//server_038.champsimtrace.xz
.xz
NUM_OF_IPS_IN_CRITICAL_IP_TRAINING: 64
NUM_OF_CRITICAL_IP_TRAINING_TABLE_WAYS: 2
NUM_OF_CRITICAL_IP_TRAINING_TABLE_SETS: 32
WOBBLY_CRITICAL_IP_CACHE_SETS: 32
WOBBLY_CRITICAL_IP_CACHE_WAYS: 4
BTB has LRU replacement policy
ITLB has LRU replacement policy
DTLB has LRU replacement policy
STLB has LRU replacement policy
CPU 0 L1I next line prefetcher
L1I has LRU replacement policy
IP Table Entries: 256
L1D has LRU replacement policy
Initialize SRRIP state for L2C
Initialize DRRIP state for LLC
Heartbeat CPU 0 instructions: 10000001 cycles: 2750109 heartbeat IPC: 3.63622 cumulative IPC: 3.63622 (Simulation time: 0 hr 2 min 0 sec) 
Heartbeat CPU 0 instructions: 20000001 cycles: 5498891 heartbeat IPC: 3.63797 cumulative IPC: 3.6371 (Simulation time: 0 hr 4 min 3 sec) 
Heartbeat CPU 0 instructions: 30000003 cycles: 8245592 heartbeat IPC: 3.64073 cumulative IPC: 3.63831 (Simulation time: 0 hr 6 min 8 sec) 
Heartbeat CPU 0 instructions: 40000001 cycles: 10993886 heartbeat IPC: 3.63862 cumulative IPC: 3.63839 (Simulation time: 0 hr 8 min 11 sec) 
Heartbeat CPU 0 instructions: 50000003 cycles: 13742642 heartbeat IPC: 3.63801 cumulative IPC: 3.63831 (Simulation time: 0 hr 10 min 7 sec) 

Warmup complete CPU 0 instructions: 50000003 cycles: 13742642 (Simulation time: 0 hr 10 min 7 sec) 

Heartbeat CPU 0 instructions: 60000000 cycles: 25230945 heartbeat IPC: 0.87045 cumulative IPC: 0.87045 (Simulation time: 0 hr 12 min 24 sec) 
Heartbeat CPU 0 instructions: 70000001 cycles: 36656428 heartbeat IPC: 0.875237 cumulative IPC: 0.872837 (Simulation time: 0 hr 14 min 37 sec) 
Heartbeat CPU 0 instructions: 80000002 cycles: 48096203 heartbeat IPC: 0.874143 cumulative IPC: 0.873272 (Simulation time: 0 hr 16 min 51 sec) 
Heartbeat CPU 0 instructions: 90000001 cycles: 59527755 heartbeat IPC: 0.874772 cumulative IPC: 0.873646 (Simulation time: 0 hr 19 min 6 sec) 
*** Reached end of trace for Core: 0 Repeating trace: ../IPC-traces//server_038.champsimtrace.xz
Heartbeat CPU 0 instructions: 100000002 cycles: 70967392 heartbeat IPC: 0.874154 cumulative IPC: 0.873748 (Simulation time: 0 hr 21 min 0 sec) 
Finished CPU 0 instructions: 50000003 cycles: 57224751 cumulative IPC: 0.873748 (Simulation time: 0 hr 21 min 0 sec) 

ChampSim completed all CPUs

Region of Interest Statistics

CPU 0 cumulative IPC: 0.873748 instructions: 50000003 cycles: 57224751

CPU 0 Average Load ROB stall cycles: 1.47001e+07
CPU 0 Fraction of times ROB stalled by Loads: 34.6997
CPU 0 Percentage of Load stall cycles in Total stall cycles: 2.26305e+08
Issued all: 25183586
Issued LT all: 19440975
rob_not_full_when_issued_lt_all: 19273627
Issued LT one: 14440694
rob_not_full_when_issued_lt_one: 14286189
 Total stall cycles: 45573090
 Total load stall cycles: 103133981537951
CPU 0 NUM of IPS identified critical: 0
CPU 0 Num of Load IPs stalling ROB: 4303
Threshold modification factor: 0
Max PIST entries: 64
Min PIST entries: 0
Avg PIST entries: 32
Trouble in retire width: 0.810594
MaC = Marked as critical.
lt_50_percent_before_Mac: 0
gt_90_percent_before_Mac: 0
gt_75_percent_before_Mac: 0
gt_50_percent_before_Mac: 0
stall_proportion_bin_same_before_after: 0
stall_proportion_bin_lower_before_after: 0
stall_proportion_bin_upper_before_after: 0
average_stall_proportion_before: -nan
average_stall_proportion_after: -nan
Critical IP stalls, total frequency: 0
Non-critical IP stalls, total frequency: 2434491
Total Freq all stalling IPs: 2434491
stat_90_percent_critical_ip_stalls_freq: 2191323
stat_90_percent_non_critical_ip_stalls_freq: 243168
Critical_IP_ROB_Stalls_Bucket_0: 0
Non-critical_IP_ROB_Stalls_Bucket_0: 1093561
Critical_IP_ROB_Stalls_Bucket_1: 0
Non-critical_IP_ROB_Stalls_Bucket_1: 889442
Critical_IP_ROB_Stalls_Bucket_2: 0
Non-critical_IP_ROB_Stalls_Bucket_2: 319834
Critical_IP_ROB_Stalls_Bucket_3: 0
Non-critical_IP_ROB_Stalls_Bucket_3: 90623
Critical_IP_ROB_Stalls_Bucket_4: 0
Non-critical_IP_ROB_Stalls_Bucket_4: 19778
Critical_IP_ROB_Stalls_Bucket_5: 0
Non-critical_IP_ROB_Stalls_Bucket_5: 13086
Critical_IP_ROB_Stalls_Bucket_6: 0
Non-critical_IP_ROB_Stalls_Bucket_6: 8167
0 => IPs accounting for >50 percent of stalls, 1 => 55, 2 => 60, 3 => 65 and so on till 90.
percent50: 50.0801 num IPs:  244
percent55: 55.0295 num IPs: 282
percent60: 60.0605 num IPs: 321
percent65: 65.117 num IPs: 361
percent70: 70.0974 num IPs: 402
percent75: 75.0985 num IPs: 446
percent80: 80.0074 num IPs: 494
percent85: 85.0056 num IPs: 551
percent90: 90.0116 num IPs: 642
Critical_ROB_Stalls_Percent_0_Bucket_0: 521728
Non-critical_ROB_Stalls_Percent_0_Bucket_0: 571833
Critical_ROB_Stalls_Percent_0_Bucket_1: 439601
Non-critical_ROB_Stalls_Percent_0_Bucket_1: 449841
Critical_ROB_Stalls_Percent_0_Bucket_2: 184755
Non-critical_ROB_Stalls_Percent_0_Bucket_2: 135079
Critical_ROB_Stalls_Percent_0_Bucket_3: 45114
Non-critical_ROB_Stalls_Percent_0_Bucket_3: 45509
Critical_ROB_Stalls_Percent_0_Bucket_4: 13376
Non-critical_ROB_Stalls_Percent_0_Bucket_4: 6402
Critical_ROB_Stalls_Percent_0_Bucket_5: 10603
Non-critical_ROB_Stalls_Percent_0_Bucket_5: 2483
Critical_ROB_Stalls_Percent_0_Bucket_6: 4016
Non-critical_ROB_Stalls_Percent_0_Bucket_6: 4151
Critical_ROB_Stalls_Percent_1_Bucket_0: 559691
Non-critical_ROB_Stalls_Percent_1_Bucket_0: 533870
Critical_ROB_Stalls_Percent_1_Bucket_1: 506890
Non-critical_ROB_Stalls_Percent_1_Bucket_1: 382552
Critical_ROB_Stalls_Percent_1_Bucket_2: 197178
Non-critical_ROB_Stalls_Percent_1_Bucket_2: 122656
Critical_ROB_Stalls_Percent_1_Bucket_3: 46451
Non-critical_ROB_Stalls_Percent_1_Bucket_3: 44172
Critical_ROB_Stalls_Percent_1_Bucket_4: 14714
Non-critical_ROB_Stalls_Percent_1_Bucket_4: 5064
Critical_ROB_Stalls_Percent_1_Bucket_5: 10722
Non-critical_ROB_Stalls_Percent_1_Bucket_5: 2364
Critical_ROB_Stalls_Percent_1_Bucket_6: 4042
Non-critical_ROB_Stalls_Percent_1_Bucket_6: 4125
Critical_ROB_Stalls_Percent_2_Bucket_0: 598347
Non-critical_ROB_Stalls_Percent_2_Bucket_0: 495214
Critical_ROB_Stalls_Percent_2_Bucket_1: 563530
Non-critical_ROB_Stalls_Percent_2_Bucket_1: 325912
Critical_ROB_Stalls_Percent_2_Bucket_2: 216308
Non-critical_ROB_Stalls_Percent_2_Bucket_2: 103526
Critical_ROB_Stalls_Percent_2_Bucket_3: 54391
Non-critical_ROB_Stalls_Percent_2_Bucket_3: 36232
Critical_ROB_Stalls_Percent_2_Bucket_4: 14819
Non-critical_ROB_Stalls_Percent_2_Bucket_4: 4959
Critical_ROB_Stalls_Percent_2_Bucket_5: 10730
Non-critical_ROB_Stalls_Percent_2_Bucket_5: 2356
Critical_ROB_Stalls_Percent_2_Bucket_6: 4042
Non-critical_ROB_Stalls_Percent_2_Bucket_6: 4125
Critical_ROB_Stalls_Percent_3_Bucket_0: 655267
Non-critical_ROB_Stalls_Percent_3_Bucket_0: 438294
Critical_ROB_Stalls_Percent_3_Bucket_1: 606272
Non-critical_ROB_Stalls_Percent_3_Bucket_1: 283170
Critical_ROB_Stalls_Percent_3_Bucket_2: 232167
Non-critical_ROB_Stalls_Percent_3_Bucket_2: 87667
Critical_ROB_Stalls_Percent_3_Bucket_3: 61309
Non-critical_ROB_Stalls_Percent_3_Bucket_3: 29314
Critical_ROB_Stalls_Percent_3_Bucket_4: 15357
Non-critical_ROB_Stalls_Percent_3_Bucket_4: 4421
Critical_ROB_Stalls_Percent_3_Bucket_5: 10779
Non-critical_ROB_Stalls_Percent_3_Bucket_5: 2307
Critical_ROB_Stalls_Percent_3_Bucket_6: 4115
Non-critical_ROB_Stalls_Percent_3_Bucket_6: 4052
Critical_ROB_Stalls_Percent_4_Bucket_0: 705385
Non-critical_ROB_Stalls_Percent_4_Bucket_0: 388176
Critical_ROB_Stalls_Percent_4_Bucket_1: 654247
Non-critical_ROB_Stalls_Percent_4_Bucket_1: 235195
Critical_ROB_Stalls_Percent_4_Bucket_2: 251440
Non-critical_ROB_Stalls_Percent_4_Bucket_2: 68394
Critical_ROB_Stalls_Percent_4_Bucket_3: 65114
Non-critical_ROB_Stalls_Percent_4_Bucket_3: 25509
Critical_ROB_Stalls_Percent_4_Bucket_4: 15427
Non-critical_ROB_Stalls_Percent_4_Bucket_4: 4351
Critical_ROB_Stalls_Percent_4_Bucket_5: 10785
Non-critical_ROB_Stalls_Percent_4_Bucket_5: 2301
Critical_ROB_Stalls_Percent_4_Bucket_6: 4115
Non-critical_ROB_Stalls_Percent_4_Bucket_6: 4052
Critical_ROB_Stalls_Percent_5_Bucket_0: 782269
Non-critical_ROB_Stalls_Percent_5_Bucket_0: 311292
Critical_ROB_Stalls_Percent_5_Bucket_1: 692409
Non-critical_ROB_Stalls_Percent_5_Bucket_1: 197033
Critical_ROB_Stalls_Percent_5_Bucket_2: 254367
Non-critical_ROB_Stalls_Percent_5_Bucket_2: 65467
Critical_ROB_Stalls_Percent_5_Bucket_3: 68145
Non-critical_ROB_Stalls_Percent_5_Bucket_3: 22478
Critical_ROB_Stalls_Percent_5_Bucket_4: 15991
Non-critical_ROB_Stalls_Percent_5_Bucket_4: 3787
Critical_ROB_Stalls_Percent_5_Bucket_5: 10968
Non-critical_ROB_Stalls_Percent_5_Bucket_5: 2118
Critical_ROB_Stalls_Percent_5_Bucket_6: 4117
Non-critical_ROB_Stalls_Percent_5_Bucket_6: 4050
Critical_ROB_Stalls_Percent_6_Bucket_0: 841484
Non-critical_ROB_Stalls_Percent_6_Bucket_0: 252077
Critical_ROB_Stalls_Percent_6_Bucket_1: 736138
Non-critical_ROB_Stalls_Percent_6_Bucket_1: 153304
Critical_ROB_Stalls_Percent_6_Bucket_2: 267204
Non-critical_ROB_Stalls_Percent_6_Bucket_2: 52630
Critical_ROB_Stalls_Percent_6_Bucket_3: 71546
Non-critical_ROB_Stalls_Percent_6_Bucket_3: 19077
Critical_ROB_Stalls_Percent_6_Bucket_4: 16185
Non-critical_ROB_Stalls_Percent_6_Bucket_4: 3593
Critical_ROB_Stalls_Percent_6_Bucket_5: 11066
Non-critical_ROB_Stalls_Percent_6_Bucket_5: 2020
Critical_ROB_Stalls_Percent_6_Bucket_6: 4149
Non-critical_ROB_Stalls_Percent_6_Bucket_6: 4018
Critical_ROB_Stalls_Percent_7_Bucket_0: 920349
Non-critical_ROB_Stalls_Percent_7_Bucket_0: 173212
Critical_ROB_Stalls_Percent_7_Bucket_1: 764030
Non-critical_ROB_Stalls_Percent_7_Bucket_1: 125412
Critical_ROB_Stalls_Percent_7_Bucket_2: 276249
Non-critical_ROB_Stalls_Percent_7_Bucket_2: 43585
Critical_ROB_Stalls_Percent_7_Bucket_3: 74001
Non-critical_ROB_Stalls_Percent_7_Bucket_3: 16622
Critical_ROB_Stalls_Percent_7_Bucket_4: 16415
Non-critical_ROB_Stalls_Percent_7_Bucket_4: 3363
Critical_ROB_Stalls_Percent_7_Bucket_5: 12286
Non-critical_ROB_Stalls_Percent_7_Bucket_5: 800
Critical_ROB_Stalls_Percent_7_Bucket_6: 6122
Non-critical_ROB_Stalls_Percent_7_Bucket_6: 2045
Critical_ROB_Stalls_Percent_8_Bucket_0: 987438
Non-critical_ROB_Stalls_Percent_8_Bucket_0: 106123
Critical_ROB_Stalls_Percent_8_Bucket_1: 802014
Non-critical_ROB_Stalls_Percent_8_Bucket_1: 87428
Critical_ROB_Stalls_Percent_8_Bucket_2: 286951
Non-critical_ROB_Stalls_Percent_8_Bucket_2: 32883
Critical_ROB_Stalls_Percent_8_Bucket_3: 78318
Non-critical_ROB_Stalls_Percent_8_Bucket_3: 12305
Critical_ROB_Stalls_Percent_8_Bucket_4: 16625
Non-critical_ROB_Stalls_Percent_8_Bucket_4: 3153
Critical_ROB_Stalls_Percent_8_Bucket_5: 12474
Non-critical_ROB_Stalls_Percent_8_Bucket_5: 612
Critical_ROB_Stalls_Percent_8_Bucket_6: 7503
Non-critical_ROB_Stalls_Percent_8_Bucket_6: 664
Average ROB occupancy Load Stall Begin: 54.5147
Average ROB occupancy Load Stall End: 65.9464
Min ROB occupancy Load Stall Begin: 1
Max ROB occupancy Load Stall Begin: 352
Min ROB occupancy Load Stall End: 1
Max ROB occupancy Load Stall End: 352
Average ROB occupancy Critical Load Stall Begin: -nan
Average ROB occupancy Critical Load Stall End: -nan
Min ROB occupancy Critical Load Stall Begin: 400
Max ROB occupancy Critical Load Stall Begin: 0
Min ROB occupancy Critical Load Stall End: 400
Max ROB occupancy Critical Load Stall End: 0
 ROB Load Stall Begin Bucket Count 0: 1422775
 ROB Load Stall End Bucket Count 0: 1093561
 ROB Critical Load Stall Begin Bucket Count 0: 0
 ROB Critical Load Stall End Bucket Count 0: 0
 ROB Load Stall Begin Bucket Count 1: 695416
 ROB Load Stall End Bucket Count 1: 889442
 ROB Critical Load Stall Begin Bucket Count 1: 0
 ROB Critical Load Stall End Bucket Count 1: 0
 ROB Load Stall Begin Bucket Count 2: 230025
 ROB Load Stall End Bucket Count 2: 319834
 ROB Critical Load Stall Begin Bucket Count 2: 0
 ROB Critical Load Stall End Bucket Count 2: 0
 ROB Load Stall Begin Bucket Count 3: 57760
 ROB Load Stall End Bucket Count 3: 90623
 ROB Critical Load Stall Begin Bucket Count 3: 0
 ROB Critical Load Stall End Bucket Count 3: 0
 ROB Load Stall Begin Bucket Count 4: 9545
 ROB Load Stall End Bucket Count 4: 19778
 ROB Critical Load Stall Begin Bucket Count 4: 0
 ROB Critical Load Stall End Bucket Count 4: 0
 ROB Load Stall Begin Bucket Count 5: 12686
 ROB Load Stall End Bucket Count 5: 13086
 ROB Critical Load Stall Begin Bucket Count 5: 0
 ROB Critical Load Stall End Bucket Count 5: 0
 ROB Load Stall Begin Bucket Count 6: 6284
 ROB Load Stall End Bucket Count 6: 8167
 ROB Critical Load Stall Begin Bucket Count 6: 0
 ROB Critical Load Stall End Bucket Count 6: 0
PIST Tag Read Accesses: 2609666
PIST Read Accesses: 1304833
PIST Tag Write Accesses: 2609666
PIST Write Accesses: 1304833
Criticality detector called times: 2432704
Max global_stall_cycles_count: 2544724
Threshold Modified: 0 times, factor: 0
Sturdy critical IP cache stats: 
 Unused entries: 0
CIC Tag Read Accesses: 0
CIC Read Accesses: 0
CIC Tag Write Accesses: 0
CIC Write Accesses: 0
Wobbly critical IP cache stats: 
 Unused entries: 127
CIC Tag Read Accesses: 145339643
CIC Read Accesses: 0
CIC Tag Write Accesses: 1
CIC Write Accesses: 0
ITLB TOTAL     ACCESS:   10593927  HIT:    9882778  MISS:     711149  HIT %:    93.2872  MISS %:     6.7128   MPKI: 14.223
ITLB LOAD TRANSLATION ACCESS:    8007521  HIT:    7982731  MISS:      24790  HIT %:    99.6904  MISS %:   0.309584   MPKI: 0.4958
ITLB TRANSLATION FROM L1D PREFETCHER ACCESS:    2586406  HIT:    1900047  MISS:     686359  HIT %:    73.4628  MISS %:    26.5372   MPKI: 13.7272
ITLB PREFETCH  REQUESTED:          0  ISSUED:          0  USEFUL:     648807  USELESS:      37551
ITLB USEFUL LOAD PREFETCHES:     648807 PREFETCH ISSUED TO LOWER LEVEL:          0  ACCURACY: inf
ITLB TIMELY PREFETCHES:     648807 LATE PREFETCHES: 2 DROPPED PREFETCHES: 79
ITLB PREFETCHES SAME FILL-ORIGIN LEVEL: 0 DIFFERENT FILL-ORIGIN LEVEL: 0
ITLB AVERAGE MISS LATENCY: 93.686 cycles
ITLB RQ	ACCESS:   16266477	FORWARD:          0	MERGED:    5588437	TO_CACHE:   10678040

DTLB TOTAL     ACCESS:    9395715  HIT:    8875846  MISS:     519869  HIT %:     94.467  MISS %:    5.53304   MPKI: 10.3974
DTLB LOAD TRANSLATION ACCESS:    9395715  HIT:    8875846  MISS:     519869  HIT %:     94.467  MISS %:    5.53304   MPKI: 10.3974
DTLB PREFETCH  REQUESTED:          0  ISSUED:          0  USEFUL:          0  USELESS:          0
DTLB USEFUL LOAD PREFETCHES:          0 PREFETCH ISSUED TO LOWER LEVEL:          0  ACCURACY: -nan
DTLB TIMELY PREFETCHES:          0 LATE PREFETCHES: 0 DROPPED PREFETCHES: 0
DTLB PREFETCHES SAME FILL-ORIGIN LEVEL: 0 DIFFERENT FILL-ORIGIN LEVEL: 0
DTLB AVERAGE MISS LATENCY: 9.84186 cycles
DTLB RQ	ACCESS:   13427811	FORWARD:          0	MERGED:    3989815	TO_CACHE:    9437996

STLB TOTAL     ACCESS:    1232687  HIT:    1226811  MISS:       5876  HIT %:    99.5233  MISS %:   0.476682   MPKI: 0.11752
STLB LOAD TRANSLATION ACCESS:     544657  HIT:     538901  MISS:       5756  HIT %:    98.9432  MISS %:    1.05681   MPKI: 0.11512
STLB TRANSLATION FROM L1D PREFETCHER ACCESS:     688030  HIT:     687910  MISS:        120  HIT %:    99.9826  MISS %:  0.0174411   MPKI: 0.0024
STLB PREFETCH  REQUESTED:          0  ISSUED:          0  USEFUL:         63  USELESS:         46
STLB USEFUL LOAD PREFETCHES:         63 PREFETCH ISSUED TO LOWER LEVEL:          0  ACCURACY: inf
STLB TIMELY PREFETCHES:         63 LATE PREFETCHES: 0 DROPPED PREFETCHES: 79
STLB PREFETCHES SAME FILL-ORIGIN LEVEL: 0 DIFFERENT FILL-ORIGIN LEVEL: 0
STLB AVERAGE MISS LATENCY: 73.4535 cycles
STLB RQ	ACCESS:    1232914	FORWARD:          0	MERGED:        148	TO_CACHE:    1232766

STLB Hit, L1D data hit: 0
STLB Hit, L2C data hit: 0
STLB Hit, LLC data hit: 0
STLB Hit, LLC data miss: 0
STLB STLB hints to L2: 0
L1D TOTAL     ACCESS:   13331310  HIT:   12891339  MISS:     439971  HIT %:    96.6997  MISS %:    3.30028   MPKI: 8.79942
L1D LOAD      ACCESS:    7079957  HIT:    6703678  MISS:     376279  HIT %:    94.6853  MISS %:    5.31471   MPKI: 7.52558
L1D RFO       ACCESS:    6250010  HIT:    6187655  MISS:      62355  HIT %:    99.0023  MISS %:   0.997678   MPKI: 1.2471
L1D PREFETCH  ACCESS:       1343  HIT:          6  MISS:       1337  HIT %:   0.446761  MISS %:    99.5532   MPKI: 0.02674
L1D PREFETCH  REQUESTED:       3634  ISSUED:       3634  USEFUL:       1292  USELESS:         45
L1D USEFUL LOAD PREFETCHES:       1292 PREFETCH ISSUED TO LOWER LEVEL:       1803  ACCURACY: 71.6583
L1D TIMELY PREFETCHES:       1292 LATE PREFETCHES: 466 DROPPED PREFETCHES: 0
L1D PREFETCHES SAME FILL-ORIGIN LEVEL: 1803 DIFFERENT FILL-ORIGIN LEVEL: 0
L1D AVERAGE MISS LATENCY: 44790.1 cycles
L1D RQ	ACCESS:   10947817	FORWARD:          0	MERGED:    3700976	TO_CACHE:    7094629
L1D WQ	ACCESS:    6427456	FORWARD:     152212	MERGED:      94274	TO_CACHE:    6333182
L1D PQ	ACCESS:       1817	FORWARD:          0	MERGED:          0	TO_CACHE:       1817

L1D UNIQUE REGIONS ACCESSED: 0
L1D REGIONS CONFLICTS: 0
L1D Cross Page Prefetch Requests: 0
L1D Same Page Prefetch Requests: 1817
L1D ROI Sum of L1D PQ occupancy: 23793
L1D PREFETCHES PUSHED FROM L2C: 0
L1I TOTAL     ACCESS:   16228676  HIT:   11479450  MISS:    4749226  HIT %:    70.7356  MISS %:    29.2644   MPKI: 94.9845
L1I LOAD      ACCESS:    9511198  HIT:    9496171  MISS:      15027  HIT %:     99.842  MISS %:   0.157993   MPKI: 0.30054
L1I PREFETCH  ACCESS:    6717478  HIT:    1983279  MISS:    4734199  HIT %:    29.5242  MISS %:    70.4758   MPKI: 94.684
L1I PREFETCH  REQUESTED:    6948420  ISSUED:    6923206  USEFUL:    4106736  USELESS:     627470
L1I USEFUL LOAD PREFETCHES:    4106736 PREFETCH ISSUED TO LOWER LEVEL:    4737940  ACCURACY: 86.6777
L1I TIMELY PREFETCHES:    4106736 LATE PREFETCHES: 3743 DROPPED PREFETCHES: 158
L1I PREFETCHES SAME FILL-ORIGIN LEVEL: 4737940 DIFFERENT FILL-ORIGIN LEVEL: 0
L1I AVERAGE MISS LATENCY: 33231.9 cycles
L1I RQ	ACCESS:   14194625	FORWARD:          0	MERGED:    4682616	TO_CACHE:    9512009
L1I PQ	ACCESS:    6923206	FORWARD:          0	MERGED:     168738	TO_CACHE:    6754468

BTB TOTAL     ACCESS:    5373999  HIT:    4845470  MISS:     528529  HIT %:    90.1651  MISS %:    9.83493   MPKI: 10.5706
BTB BRANCH_DIRECT_JUMP	ACCESS:     541911  HIT:     528428  MISS:      13483
BTB BRANCH_INDIRECT	ACCESS:      59690  HIT:      59594  MISS:         96
BTB BRANCH_CONDITIONAL	ACCESS:    2296252  HIT:    2253029  MISS:      43223
BTB BRANCH_DIRECT_CALL	ACCESS:    1003585  HIT:     965030  MISS:      38555
BTB BRANCH_INDIRECT_CALL	ACCESS:     234499  HIT:     188656  MISS:      45843
BTB BRANCH_RETURN	ACCESS:    1238062  HIT:     850733  MISS:     387329
BTB BRANCH_OTHER ACCESS:          0  HIT:          0  MISS:          0

L2C TOTAL     ACCESS:    5430426  HIT:    5281069  MISS:     149357  HIT %:    97.2496  MISS %:    2.75037   MPKI: 2.98714
L2C LOAD      ACCESS:     387022  HIT:     278430  MISS:     108592  HIT %:    71.9416  MISS %:    28.0584   MPKI: 2.17184
L2C DATA LOAD MPKI: 2.15906
L2C INSTRUCTION LOAD MPKI: 0.01278
L2C RFO       ACCESS:      62355  HIT:      37880  MISS:      24475  HIT %:    60.7489  MISS %:    39.2511   MPKI: 0.4895
L2C PREFETCH  ACCESS:    4739744  HIT:    4732831  MISS:       6913  HIT %:    99.8541  MISS %:   0.145852   MPKI: 0.13826
L2C DATA PREFETCH MPKI: 0.03606
L2C INSTRUCTION PREFETCH MPKI: 0.1022
L2C WRITEBACK ACCESS:     233094  HIT:     228589  MISS:       4505  HIT %:    98.0673  MISS %:     1.9327   MPKI: 0.0901
L2C LOAD TRANSLATION ACCESS:       7876  HIT:       3132  MISS:       4744  HIT %:    39.7664  MISS %:    60.2336   MPKI: 0.09488
L2C TRANSLATION FROM L1D PREFETCHER ACCESS:        335  HIT:        207  MISS:        128  HIT %:     61.791  MISS %:     38.209   MPKI: 0.00256
L2C PREFETCH  REQUESTED:          0  ISSUED:          0  USEFUL:        231  USELESS:       6626
L2C USEFUL LOAD PREFETCHES:        231 PREFETCH ISSUED TO LOWER LEVEL:       6913  ACCURACY: 3.34153
L2C TIMELY PREFETCHES:        231 LATE PREFETCHES: 0 DROPPED PREFETCHES: 0
L2C PREFETCHES SAME FILL-ORIGIN LEVEL: 0 DIFFERENT FILL-ORIGIN LEVEL: 0
L2C AVERAGE MISS LATENCY: 51.7701 cycles
L2C RQ	ACCESS:     457663	FORWARD:          0	MERGED:          0	TO_CACHE:     457588
L2C WQ	ACCESS:     233094	FORWARD:         75	MERGED:          0	TO_CACHE:     233094
L2C PQ	ACCESS:    4739743	FORWARD:          0	MERGED:          0	TO_CACHE:    4739743

L2C Instructions Evicting Data 5247
L2C Translations Evicting Data 4393
L2C Data Evicting Data 125082
L2C Instructions Evicting Instructions 286
L2C Translations Evicting Instructions 190
L2C Data Evicting Instructions 4849
L2C Instructions Evicting Translations 216
L2C Translations Evicting Translations 289
L2C Data Evicting Translations 4300
L2C Dense regions hint from L2: 0
PSCL5 TOTAL     ACCESS:       5955  HIT:       5955  MISS:          0  HIT %:        100  MISS %:          0   MPKI: 0
PSCL5 LOAD TRANSLATION ACCESS:       5756  HIT:       5756  MISS:          0  HIT %:        100  MISS %:          0   MPKI: 0
PSCL5 TRANSLATION FROM L1D PREFETCHER ACCESS:        199  HIT:        199  MISS:          0  HIT %:        100  MISS %:          0   MPKI: 0
PSCL5 PREFETCH  REQUESTED:          0  ISSUED:          0  USEFUL:          0  USELESS:          0
PSCL5 USEFUL LOAD PREFETCHES:          0 PREFETCH ISSUED TO LOWER LEVEL:          0  ACCURACY: -nan
PSCL5 TIMELY PREFETCHES:          0 LATE PREFETCHES: 0 DROPPED PREFETCHES: 0
PSCL5 PREFETCHES SAME FILL-ORIGIN LEVEL: 0 DIFFERENT FILL-ORIGIN LEVEL: 0

PSCL4 TOTAL     ACCESS:       5936  HIT:       5933  MISS:          3  HIT %:    99.9495  MISS %:  0.0505391   MPKI: 6e-05
PSCL4 LOAD TRANSLATION ACCESS:       5737  HIT:       5734  MISS:          3  HIT %:    99.9477  MISS %:  0.0522921   MPKI: 6e-05
PSCL4 TRANSLATION FROM L1D PREFETCHER ACCESS:        199  HIT:        199  MISS:          0  HIT %:        100  MISS %:          0   MPKI: 0
PSCL4 PREFETCH  REQUESTED:          0  ISSUED:          0  USEFUL:          0  USELESS:          0
PSCL4 USEFUL LOAD PREFETCHES:          0 PREFETCH ISSUED TO LOWER LEVEL:          0  ACCURACY: -nan
PSCL4 TIMELY PREFETCHES:          0 LATE PREFETCHES: 0 DROPPED PREFETCHES: 0
PSCL4 PREFETCHES SAME FILL-ORIGIN LEVEL: 0 DIFFERENT FILL-ORIGIN LEVEL: 0

PSCL3 TOTAL     ACCESS:       5946  HIT:       5940  MISS:          6  HIT %:    99.8991  MISS %:   0.100908   MPKI: 0.00012
PSCL3 LOAD TRANSLATION ACCESS:       5747  HIT:       5741  MISS:          6  HIT %:    99.8956  MISS %:   0.104402   MPKI: 0.00012
PSCL3 TRANSLATION FROM L1D PREFETCHER ACCESS:        199  HIT:        199  MISS:          0  HIT %:        100  MISS %:          0   MPKI: 0
PSCL3 PREFETCH  REQUESTED:          0  ISSUED:          0  USEFUL:          0  USELESS:          0
PSCL3 USEFUL LOAD PREFETCHES:          0 PREFETCH ISSUED TO LOWER LEVEL:          0  ACCURACY: -nan
PSCL3 TIMELY PREFETCHES:          0 LATE PREFETCHES: 0 DROPPED PREFETCHES: 0
PSCL3 PREFETCHES SAME FILL-ORIGIN LEVEL: 0 DIFFERENT FILL-ORIGIN LEVEL: 0

PSCL2 TOTAL     ACCESS:       5876  HIT:       3685  MISS:       2191  HIT %:    62.7127  MISS %:    37.2873   MPKI: 0.04382
PSCL2 LOAD TRANSLATION ACCESS:       5813  HIT:       3622  MISS:       2191  HIT %:    62.3086  MISS %:    37.6914   MPKI: 0.04382
PSCL2 TRANSLATION FROM L1D PREFETCHER ACCESS:         63  HIT:         63  MISS:          0  HIT %:        100  MISS %:          0   MPKI: 0
PSCL2 PREFETCH  REQUESTED:          0  ISSUED:          0  USEFUL:          0  USELESS:          0
PSCL2 USEFUL LOAD PREFETCHES:          0 PREFETCH ISSUED TO LOWER LEVEL:          0  ACCURACY: -nan
PSCL2 TIMELY PREFETCHES:          0 LATE PREFETCHES: 0 DROPPED PREFETCHES: 0
PSCL2 PREFETCHES SAME FILL-ORIGIN LEVEL: 0 DIFFERENT FILL-ORIGIN LEVEL: 0

LLC TOTAL     ACCESS:     216305  HIT:     194282  MISS:      22023  HIT %:    89.8185  MISS %:    10.1815   MPKI: 0.44046
LLC LOAD      ACCESS:     108590  HIT:      94226  MISS:      14364  HIT %:    86.7723  MISS %:    13.2277   MPKI: 0.28728
LLC RFO       ACCESS:      24475  HIT:      19188  MISS:       5287  HIT %:    78.3984  MISS %:    21.6016   MPKI: 0.10574
LLC PREFETCH  ACCESS:       6913  HIT:       4912  MISS:       2001  HIT %:    71.0545  MISS %:    28.9455   MPKI: 0.04002
LLC WRITEBACK ACCESS:      71455  HIT:      71218  MISS:        237  HIT %:    99.6683  MISS %:   0.331677   MPKI: 0.00474
LLC LOAD TRANSLATION ACCESS:       4744  HIT:       4610  MISS:        134  HIT %:    97.1754  MISS %:    2.82462   MPKI: 0.00268
LLC TRANSLATION FROM L1D PREFETCHER ACCESS:        128  HIT:        128  MISS:          0  HIT %:        100  MISS %:          0   MPKI: 0
LLC PREFETCH  REQUESTED:          0  ISSUED:          0  USEFUL:          0  USELESS:        403
LLC USEFUL LOAD PREFETCHES:          0 PREFETCH ISSUED TO LOWER LEVEL:       2001  ACCURACY: 0
LLC TIMELY PREFETCHES:          0 LATE PREFETCHES: 0 DROPPED PREFETCHES: 0
LLC PREFETCHES SAME FILL-ORIGIN LEVEL: 0 DIFFERENT FILL-ORIGIN LEVEL: 0
LLC AVERAGE MISS LATENCY: 153.584 cycles
LLC RQ	ACCESS:     137939	FORWARD:          0	MERGED:          0	TO_CACHE:     137937
LLC WQ	ACCESS:      71455	FORWARD:          2	MERGED:          0	TO_CACHE:      71455
LLC PQ	ACCESS:       6913	FORWARD:          0	MERGED:          0	TO_CACHE:       6913

LLC Dense regions hint to LLC: 0

RAW hits: 1601674
Loads Generated: 12549491
Loads sent to L1D: 10947817
Stores Generated: 6427447
Stores sent to L1D: 6427456
Major fault: 0 Minor fault: 5748
Allocated PAGES: 5748
I-Shadow cache 408 bytes
Touched + WorthPF tables 6144 bytes 
MMA filter 174 bytes 
FNL filter 272 bytes 
TOTAL PREFETCHER STORAGE SIZE: 25174 bytes
CPU 0 L1I next line prefetcher final stats

stream: 
stream:times selected: 1785
stream:pref_filled: 1334
stream:pref_useful: 1289
stream:pref_late: 416
stream:misses: 0
stream:misses_by_poll: 0

CS: 
CS:times selected: 1778
CS:pref_filled: 3
CS:pref_useful: 3
CS:pref_late: 1
CS:misses: 493
CS:misses_by_poll: 0

CPLX: 
CPLX:times selected: 5
CPLX:pref_filled: 0
CPLX:pref_useful: 0
CPLX:pref_late: 0
CPLX:misses: 0
CPLX:misses_by_poll: 0

NL_L1: 
NL:times selected: 0
NL:pref_filled: 0
NL:pref_useful: 0
NL:pref_late: 0
NL:misses: 0
NL:misses_by_poll: 0

total selections: 3568
total_filled: 1337
total_useful: 1292
total_late: 466
total_polluted: 0
total_misses_after_warmup: 496
conflicts: 1
Degree Incremented Times: 5
Degree Decremented Times: 0

L1 IP Table Write Accesses: 1787
L1 IP Table Read Accesses: 1786
L1 RST Write Accesses: 1786
L1 RST Read Accesses: 3564
L1 CSPT Write Accesses: 1786
L1 CSPT Read Accesses: 1801
L1 RR Filter Tag Write Accesses: 1817
L1 RR Filter Tag Read Accesses: 459050
L1 IP Table Tag Write Accesses: 1787
L1 IP Table Tag Read Accesses: 1787
L1 RST Tag Write Accesses: 56
L1 RST Tag Read Accesses: 16380
L1 RR Filter Write Accesses: 0
L1 RR Filter Read Accesses: 15604
test: 26

DRAM Statistics
 CHANNEL 0
 RQ ROW_BUFFER_HIT:       5196  ROW_BUFFER_MISS:      16590
 DBUS_CONGESTED:          3
 WQ ROW_BUFFER_HIT:        596  ROW_BUFFER_MISS:       7072  FULL:          0

 AVG_CONGESTED_CYCLE: 5
 All warmup complete: 2
Channel 0 Bank busy for read cycles: 0
Channel 0 Bank busy for write cycles: 0
Channel 0
Rank 0
0banks busy for read cycles: 54072047
0banks busy for write cycles: 5226
1banks busy for read cycles: 1672255
1banks busy for write cycles: 825514
2banks busy for read cycles: 365178
2banks busy for write cycles: 164367
3banks busy for read cycles: 16750
3banks busy for write cycles: 21302
4banks busy for read cycles: 13860
4banks busy for write cycles: 14198
5banks busy for read cycles: 13107
5banks busy for write cycles: 4831
6banks busy for read cycles: 12782
6banks busy for write cycles: 3355
7banks busy for read cycles: 14050
7banks busy for write cycles: 4062
8banks busy for read cycles: 143
8banks busy for write cycles: 1725

CPU 0 Branch Prediction Accuracy: 99.9279% MPKI: 0.12968 Average ROB Occupancy at Mispredict: 52.9311
Branch types
NOT_BRANCH: 41006134 82.0123%
BRANCH_DIRECT_JUMP: 541911 1.08382%
BRANCH_INDIRECT: 59690 0.11938%
BRANCH_CONDITIONAL: 5915823 11.8316%
BRANCH_DIRECT_CALL: 1003585 2.00717%
BRANCH_INDIRECT_CALL: 234499 0.468998%
BRANCH_RETURN: 1238062 2.47612%
BRANCH_OTHER: 0 0%

DRAM PAGES: 1048576
Allocated PAGES: 5748
