
*** ChampSim Multicore Out-of-Order Simulator ***

Warmup Instructions: 50000000
Simulation Instructions: 50000000
Number of CPUs: 1
LLC sets: 2048
LLC ways: 16
Off-chip DRAM Size: 4096 MB Channels: 1 Width: 64-bit Data Rate: 6400 MT/s
CPU 0 runs ../IPC-traces//server_034.champsimtrace.xz
.xz
NUM_OF_IPS_IN_CRITICAL_IP_TRAINING: 64
NUM_OF_CRITICAL_IP_TRAINING_TABLE_WAYS: 2
NUM_OF_CRITICAL_IP_TRAINING_TABLE_SETS: 32
WOBBLY_CRITICAL_IP_CACHE_SETS: 32
WOBBLY_CRITICAL_IP_CACHE_WAYS: 4
BTB has LRU replacement policy
ITLB has LRU replacement policy
DTLB has LRU replacement policy
STLB has LRU replacement policy
CPU 0 L1I next line prefetcher
L1I has LRU replacement policy
L1D has LRU replacement policy
Bingo PHT WAYS: 16 and PHT_SIZE: 16384
Initialize SRRIP state for L2C
Initialize DRRIP state for LLC
Heartbeat CPU 0 instructions: 10000000 cycles: 2757488 heartbeat IPC: 3.62649 cumulative IPC: 3.62649 (Simulation time: 0 hr 3 min 17 sec) 
Heartbeat CPU 0 instructions: 20000000 cycles: 5508516 heartbeat IPC: 3.635 cumulative IPC: 3.63074 (Simulation time: 0 hr 5 min 57 sec) 
Heartbeat CPU 0 instructions: 30000003 cycles: 8260386 heartbeat IPC: 3.63389 cumulative IPC: 3.63179 (Simulation time: 0 hr 8 min 31 sec) 
Heartbeat CPU 0 instructions: 40000001 cycles: 11012818 heartbeat IPC: 3.63315 cumulative IPC: 3.63213 (Simulation time: 0 hr 10 min 40 sec) 
Heartbeat CPU 0 instructions: 50000000 cycles: 13766086 heartbeat IPC: 3.63205 cumulative IPC: 3.63211 (Simulation time: 0 hr 12 min 38 sec) 

Warmup complete CPU 0 instructions: 50000002 cycles: 13766087 (Simulation time: 0 hr 12 min 38 sec) 

% increase in all ip prefetch 323.124
% increase in all ip prefetch -0.0238339
Heartbeat CPU 0 instructions: 60000002 cycles: 26291869 heartbeat IPC: 0.798353 cumulative IPC: 0.798353 (Simulation time: 0 hr 14 min 55 sec) 
Heartbeat CPU 0 instructions: 70000003 cycles: 38741304 heartbeat IPC: 0.803249 cumulative IPC: 0.800794 (Simulation time: 0 hr 17 min 11 sec) 
Heartbeat CPU 0 instructions: 80000001 cycles: 51195437 heartbeat IPC: 0.802946 cumulative IPC: 0.80151 (Simulation time: 0 hr 19 min 26 sec) 
Heartbeat CPU 0 instructions: 90000002 cycles: 63647611 heartbeat IPC: 0.803073 cumulative IPC: 0.8019 (Simulation time: 0 hr 21 min 41 sec) 
Heartbeat CPU 0 instructions: 100000003 cycles: 76176167 heartbeat IPC: 0.798177 cumulative IPC: 0.801153 (Simulation time: 0 hr 23 min 50 sec) 
Finished CPU 0 instructions: 50000001 cycles: 62410080 cumulative IPC: 0.801153 (Simulation time: 0 hr 23 min 50 sec) 

ChampSim completed all CPUs

Region of Interest Statistics

CPU 0 cumulative IPC: 0.801153 instructions: 50000001 cycles: 62410080

CPU 0 Average Load ROB stall cycles: 1.63868e+07
CPU 0 Fraction of times ROB stalled by Loads: 36.4286
CPU 0 Percentage of Load stall cycles in Total stall cycles: 2.55105e+08
Issued all: 26198231
Issued LT all: 20418746
rob_not_full_when_issued_lt_all: 20194630
Issued LT one: 15337110
rob_not_full_when_issued_lt_one: 15160911
 Total stall cycles: 50483043
 Total load stall cycles: 128784690063939
CPU 0 NUM of IPS identified critical: 0
CPU 0 Num of Load IPs stalling ROB: 6914
Threshold modification factor: -1
Max PIST entries: 64
Min PIST entries: 0
Avg PIST entries: 32
Trouble in retire width: 0.860947
MaC = Marked as critical.
lt_50_percent_before_Mac: 0
gt_90_percent_before_Mac: 0
gt_75_percent_before_Mac: 0
gt_50_percent_before_Mac: 0
stall_proportion_bin_same_before_after: 0
stall_proportion_bin_lower_before_after: 0
stall_proportion_bin_upper_before_after: 0
average_stall_proportion_before: -nan
average_stall_proportion_after: -nan
Critical IP stalls, total frequency: 0
Non-critical IP stalls, total frequency: 2862937
Total Freq all stalling IPs: 2862937
stat_90_percent_critical_ip_stalls_freq: 2576914
stat_90_percent_non_critical_ip_stalls_freq: 286023
Critical_IP_ROB_Stalls_Bucket_0: 0
Non-critical_IP_ROB_Stalls_Bucket_0: 1643454
Critical_IP_ROB_Stalls_Bucket_1: 0
Non-critical_IP_ROB_Stalls_Bucket_1: 870511
Critical_IP_ROB_Stalls_Bucket_2: 0
Non-critical_IP_ROB_Stalls_Bucket_2: 263922
Critical_IP_ROB_Stalls_Bucket_3: 0
Non-critical_IP_ROB_Stalls_Bucket_3: 57381
Critical_IP_ROB_Stalls_Bucket_4: 0
Non-critical_IP_ROB_Stalls_Bucket_4: 6115
Critical_IP_ROB_Stalls_Bucket_5: 0
Non-critical_IP_ROB_Stalls_Bucket_5: 3360
Critical_IP_ROB_Stalls_Bucket_6: 0
Non-critical_IP_ROB_Stalls_Bucket_6: 18194
0 => IPs accounting for >50 percent of stalls, 1 => 55, 2 => 60, 3 => 65 and so on till 90.
percent50: 50.0109 num IPs:  363
percent55: 55.0201 num IPs: 466
percent60: 60.0192 num IPs: 569
percent65: 65.0133 num IPs: 672
percent70: 70.028 num IPs: 776
percent75: 75.0424 num IPs: 882
percent80: 80.0152 num IPs: 991
percent85: 85.0152 num IPs: 1109
percent90: 90.0091 num IPs: 1250
Critical_ROB_Stalls_Percent_0_Bucket_0: 842170
Non-critical_ROB_Stalls_Percent_0_Bucket_0: 801284
Critical_ROB_Stalls_Percent_0_Bucket_1: 427633
Non-critical_ROB_Stalls_Percent_0_Bucket_1: 442878
Critical_ROB_Stalls_Percent_0_Bucket_2: 128520
Non-critical_ROB_Stalls_Percent_0_Bucket_2: 135402
Critical_ROB_Stalls_Percent_0_Bucket_3: 19583
Non-critical_ROB_Stalls_Percent_0_Bucket_3: 37798
Critical_ROB_Stalls_Percent_0_Bucket_4: 2606
Non-critical_ROB_Stalls_Percent_0_Bucket_4: 3509
Critical_ROB_Stalls_Percent_0_Bucket_5: 677
Non-critical_ROB_Stalls_Percent_0_Bucket_5: 2683
Critical_ROB_Stalls_Percent_0_Bucket_6: 10594
Non-critical_ROB_Stalls_Percent_0_Bucket_6: 7600
Critical_ROB_Stalls_Percent_1_Bucket_0: 899628
Non-critical_ROB_Stalls_Percent_1_Bucket_0: 743826
Critical_ROB_Stalls_Percent_1_Bucket_1: 488273
Non-critical_ROB_Stalls_Percent_1_Bucket_1: 382238
Critical_ROB_Stalls_Percent_1_Bucket_2: 147513
Non-critical_ROB_Stalls_Percent_1_Bucket_2: 116409
Critical_ROB_Stalls_Percent_1_Bucket_3: 24425
Non-critical_ROB_Stalls_Percent_1_Bucket_3: 32956
Critical_ROB_Stalls_Percent_1_Bucket_4: 3813
Non-critical_ROB_Stalls_Percent_1_Bucket_4: 2302
Critical_ROB_Stalls_Percent_1_Bucket_5: 945
Non-critical_ROB_Stalls_Percent_1_Bucket_5: 2415
Critical_ROB_Stalls_Percent_1_Bucket_6: 10597
Non-critical_ROB_Stalls_Percent_1_Bucket_6: 7597
Critical_ROB_Stalls_Percent_2_Bucket_0: 961276
Non-critical_ROB_Stalls_Percent_2_Bucket_0: 682178
Critical_ROB_Stalls_Percent_2_Bucket_1: 547882
Non-critical_ROB_Stalls_Percent_2_Bucket_1: 322629
Critical_ROB_Stalls_Percent_2_Bucket_2: 165971
Non-critical_ROB_Stalls_Percent_2_Bucket_2: 97951
Critical_ROB_Stalls_Percent_2_Bucket_3: 26760
Non-critical_ROB_Stalls_Percent_2_Bucket_3: 30621
Critical_ROB_Stalls_Percent_2_Bucket_4: 3892
Non-critical_ROB_Stalls_Percent_2_Bucket_4: 2223
Critical_ROB_Stalls_Percent_2_Bucket_5: 1044
Non-critical_ROB_Stalls_Percent_2_Bucket_5: 2316
Critical_ROB_Stalls_Percent_2_Bucket_6: 11496
Non-critical_ROB_Stalls_Percent_2_Bucket_6: 6698
Critical_ROB_Stalls_Percent_3_Bucket_0: 1016497
Non-critical_ROB_Stalls_Percent_3_Bucket_0: 626957
Critical_ROB_Stalls_Percent_3_Bucket_1: 598076
Non-critical_ROB_Stalls_Percent_3_Bucket_1: 272435
Critical_ROB_Stalls_Percent_3_Bucket_2: 193993
Non-critical_ROB_Stalls_Percent_3_Bucket_2: 69929
Critical_ROB_Stalls_Percent_3_Bucket_3: 36271
Non-critical_ROB_Stalls_Percent_3_Bucket_3: 21110
Critical_ROB_Stalls_Percent_3_Bucket_4: 3923
Non-critical_ROB_Stalls_Percent_3_Bucket_4: 2192
Critical_ROB_Stalls_Percent_3_Bucket_5: 1044
Non-critical_ROB_Stalls_Percent_3_Bucket_5: 2316
Critical_ROB_Stalls_Percent_3_Bucket_6: 11496
Non-critical_ROB_Stalls_Percent_3_Bucket_6: 6698
Critical_ROB_Stalls_Percent_4_Bucket_0: 1090145
Non-critical_ROB_Stalls_Percent_4_Bucket_0: 553309
Critical_ROB_Stalls_Percent_4_Bucket_1: 643386
Non-critical_ROB_Stalls_Percent_4_Bucket_1: 227125
Critical_ROB_Stalls_Percent_4_Bucket_2: 208828
Non-critical_ROB_Stalls_Percent_4_Bucket_2: 55094
Critical_ROB_Stalls_Percent_4_Bucket_3: 45052
Non-critical_ROB_Stalls_Percent_4_Bucket_3: 12329
Critical_ROB_Stalls_Percent_4_Bucket_4: 3983
Non-critical_ROB_Stalls_Percent_4_Bucket_4: 2132
Critical_ROB_Stalls_Percent_4_Bucket_5: 1146
Non-critical_ROB_Stalls_Percent_4_Bucket_5: 2214
Critical_ROB_Stalls_Percent_4_Bucket_6: 12329
Non-critical_ROB_Stalls_Percent_4_Bucket_6: 5865
Critical_ROB_Stalls_Percent_5_Bucket_0: 1171056
Non-critical_ROB_Stalls_Percent_5_Bucket_0: 472398
Critical_ROB_Stalls_Percent_5_Bucket_1: 689800
Non-critical_ROB_Stalls_Percent_5_Bucket_1: 180711
Critical_ROB_Stalls_Percent_5_Bucket_2: 219867
Non-critical_ROB_Stalls_Percent_5_Bucket_2: 44055
Critical_ROB_Stalls_Percent_5_Bucket_3: 49951
Non-critical_ROB_Stalls_Percent_5_Bucket_3: 7430
Critical_ROB_Stalls_Percent_5_Bucket_4: 4259
Non-critical_ROB_Stalls_Percent_5_Bucket_4: 1856
Critical_ROB_Stalls_Percent_5_Bucket_5: 1164
Non-critical_ROB_Stalls_Percent_5_Bucket_5: 2196
Critical_ROB_Stalls_Percent_5_Bucket_6: 12329
Non-critical_ROB_Stalls_Percent_5_Bucket_6: 5865
Critical_ROB_Stalls_Percent_6_Bucket_0: 1277231
Non-critical_ROB_Stalls_Percent_6_Bucket_0: 366223
Critical_ROB_Stalls_Percent_6_Bucket_1: 719932
Non-critical_ROB_Stalls_Percent_6_Bucket_1: 150579
Critical_ROB_Stalls_Percent_6_Bucket_2: 225681
Non-critical_ROB_Stalls_Percent_6_Bucket_2: 38241
Critical_ROB_Stalls_Percent_6_Bucket_3: 50137
Non-critical_ROB_Stalls_Percent_6_Bucket_3: 7244
Critical_ROB_Stalls_Percent_6_Bucket_4: 4309
Non-critical_ROB_Stalls_Percent_6_Bucket_4: 1806
Critical_ROB_Stalls_Percent_6_Bucket_5: 1176
Non-critical_ROB_Stalls_Percent_6_Bucket_5: 2184
Critical_ROB_Stalls_Percent_6_Bucket_6: 12329
Non-critical_ROB_Stalls_Percent_6_Bucket_6: 5865
Critical_ROB_Stalls_Percent_7_Bucket_0: 1375231
Non-critical_ROB_Stalls_Percent_7_Bucket_0: 268223
Critical_ROB_Stalls_Percent_7_Bucket_1: 753805
Non-critical_ROB_Stalls_Percent_7_Bucket_1: 116706
Critical_ROB_Stalls_Percent_7_Bucket_2: 234295
Non-critical_ROB_Stalls_Percent_7_Bucket_2: 29627
Critical_ROB_Stalls_Percent_7_Bucket_3: 51233
Non-critical_ROB_Stalls_Percent_7_Bucket_3: 6148
Critical_ROB_Stalls_Percent_7_Bucket_4: 4422
Non-critical_ROB_Stalls_Percent_7_Bucket_4: 1693
Critical_ROB_Stalls_Percent_7_Bucket_5: 1650
Non-critical_ROB_Stalls_Percent_7_Bucket_5: 1710
Critical_ROB_Stalls_Percent_7_Bucket_6: 13306
Non-critical_ROB_Stalls_Percent_7_Bucket_6: 4888
Critical_ROB_Stalls_Percent_8_Bucket_0: 1470411
Non-critical_ROB_Stalls_Percent_8_Bucket_0: 173043
Critical_ROB_Stalls_Percent_8_Bucket_1: 787233
Non-critical_ROB_Stalls_Percent_8_Bucket_1: 83278
Critical_ROB_Stalls_Percent_8_Bucket_2: 243778
Non-critical_ROB_Stalls_Percent_8_Bucket_2: 20144
Critical_ROB_Stalls_Percent_8_Bucket_3: 53007
Non-critical_ROB_Stalls_Percent_8_Bucket_3: 4374
Critical_ROB_Stalls_Percent_8_Bucket_4: 4855
Non-critical_ROB_Stalls_Percent_8_Bucket_4: 1260
Critical_ROB_Stalls_Percent_8_Bucket_5: 2043
Non-critical_ROB_Stalls_Percent_8_Bucket_5: 1317
Critical_ROB_Stalls_Percent_8_Bucket_6: 15587
Non-critical_ROB_Stalls_Percent_8_Bucket_6: 2607
Average ROB occupancy Load Stall Begin: 44.6531
Average ROB occupancy Load Stall End: 54.3779
Min ROB occupancy Load Stall Begin: 1
Max ROB occupancy Load Stall Begin: 352
Min ROB occupancy Load Stall End: 1
Max ROB occupancy Load Stall End: 352
Average ROB occupancy Critical Load Stall Begin: -nan
Average ROB occupancy Critical Load Stall End: -nan
Min ROB occupancy Critical Load Stall Begin: 400
Max ROB occupancy Critical Load Stall Begin: 0
Min ROB occupancy Critical Load Stall End: 400
Max ROB occupancy Critical Load Stall End: 0
 ROB Load Stall Begin Bucket Count 0: 1969756
 ROB Load Stall End Bucket Count 0: 1643454
 ROB Critical Load Stall Begin Bucket Count 0: 0
 ROB Critical Load Stall End Bucket Count 0: 0
 ROB Load Stall Begin Bucket Count 1: 651635
 ROB Load Stall End Bucket Count 1: 870511
 ROB Critical Load Stall Begin Bucket Count 1: 0
 ROB Critical Load Stall End Bucket Count 1: 0
 ROB Load Stall Begin Bucket Count 2: 178972
 ROB Load Stall End Bucket Count 2: 263922
 ROB Critical Load Stall Begin Bucket Count 2: 0
 ROB Critical Load Stall End Bucket Count 2: 0
 ROB Load Stall Begin Bucket Count 3: 37474
 ROB Load Stall End Bucket Count 3: 57381
 ROB Critical Load Stall Begin Bucket Count 3: 0
 ROB Critical Load Stall End Bucket Count 3: 0
 ROB Load Stall Begin Bucket Count 4: 4431
 ROB Load Stall End Bucket Count 4: 6115
 ROB Critical Load Stall Begin Bucket Count 4: 0
 ROB Critical Load Stall End Bucket Count 4: 0
 ROB Load Stall Begin Bucket Count 5: 4739
 ROB Load Stall End Bucket Count 5: 3360
 ROB Critical Load Stall Begin Bucket Count 5: 0
 ROB Critical Load Stall End Bucket Count 5: 0
 ROB Load Stall Begin Bucket Count 6: 15930
 ROB Load Stall End Bucket Count 6: 18194
 ROB Critical Load Stall Begin Bucket Count 6: 0
 ROB Critical Load Stall End Bucket Count 6: 0
PIST Tag Read Accesses: 3004082
PIST Read Accesses: 1502041
PIST Tag Write Accesses: 3004082
PIST Write Accesses: 1502041
Criticality detector called times: 2846623
Max global_stall_cycles_count: 2556573
Threshold Modified: 1 times, factor: -1
Sturdy critical IP cache stats: 
 Unused entries: 0
CIC Tag Read Accesses: 0
CIC Read Accesses: 0
CIC Tag Write Accesses: 0
CIC Write Accesses: 0
Wobbly critical IP cache stats: 
 Unused entries: 115
CIC Tag Read Accesses: 76970125
CIC Read Accesses: 0
CIC Tag Write Accesses: 5001
CIC Write Accesses: 0
ITLB TOTAL     ACCESS:   10582680  HIT:    9908705  MISS:     673975  HIT %:    93.6313  MISS %:    6.36866   MPKI: 13.4795
ITLB LOAD TRANSLATION ACCESS:    8285614  HIT:    8264123  MISS:      21491  HIT %:    99.7406  MISS %:   0.259377   MPKI: 0.42982
ITLB TRANSLATION FROM L1D PREFETCHER ACCESS:    2297066  HIT:    1644582  MISS:     652484  HIT %:    71.5949  MISS %:    28.4051   MPKI: 13.0497
ITLB PREFETCH  REQUESTED:          0  ISSUED:          0  USEFUL:     546598  USELESS:     105881
ITLB USEFUL LOAD PREFETCHES:     546598 PREFETCH ISSUED TO LOWER LEVEL:          0  ACCURACY: inf
ITLB TIMELY PREFETCHES:     546598 LATE PREFETCHES: 102 DROPPED PREFETCHES: 0
ITLB PREFETCHES SAME FILL-ORIGIN LEVEL: 0 DIFFERENT FILL-ORIGIN LEVEL: 0
ITLB AVERAGE MISS LATENCY: 7366.23 cycles
ITLB RQ	ACCESS:   16082727	FORWARD:          0	MERGED:    5461246	TO_CACHE:   10621481

DTLB TOTAL     ACCESS:    9496131  HIT:    9082497  MISS:     413634  HIT %:    95.6442  MISS %:    4.35582   MPKI: 8.27268
DTLB LOAD TRANSLATION ACCESS:    9496131  HIT:    9082497  MISS:     413634  HIT %:    95.6442  MISS %:    4.35582   MPKI: 8.27268
DTLB PREFETCH  REQUESTED:          0  ISSUED:          0  USEFUL:          0  USELESS:          0
DTLB USEFUL LOAD PREFETCHES:          0 PREFETCH ISSUED TO LOWER LEVEL:          0  ACCURACY: -nan
DTLB TIMELY PREFETCHES:          0 LATE PREFETCHES: 0 DROPPED PREFETCHES: 0
DTLB PREFETCHES SAME FILL-ORIGIN LEVEL: 0 DIFFERENT FILL-ORIGIN LEVEL: 0
DTLB AVERAGE MISS LATENCY: 9.07333 cycles
DTLB RQ	ACCESS:   13406683	FORWARD:          0	MERGED:    3893786	TO_CACHE:    9512897

STLB TOTAL     ACCESS:    1087609  HIT:    1086800  MISS:        809  HIT %:    99.9256  MISS %:  0.0743833   MPKI: 0.01618
STLB LOAD TRANSLATION ACCESS:     435023  HIT:     434482  MISS:        541  HIT %:    99.8756  MISS %:   0.124361   MPKI: 0.01082
STLB TRANSLATION FROM L1D PREFETCHER ACCESS:     652586  HIT:     652318  MISS:        268  HIT %:    99.9589  MISS %:  0.0410674   MPKI: 0.00536
STLB PREFETCH  REQUESTED:          0  ISSUED:          0  USEFUL:        153  USELESS:        115
STLB USEFUL LOAD PREFETCHES:        153 PREFETCH ISSUED TO LOWER LEVEL:          0  ACCURACY: inf
STLB TIMELY PREFETCHES:        153 LATE PREFETCHES: 0 DROPPED PREFETCHES: 0
STLB PREFETCHES SAME FILL-ORIGIN LEVEL: 0 DIFFERENT FILL-ORIGIN LEVEL: 0
STLB AVERAGE MISS LATENCY: 36.2744 cycles
STLB RQ	ACCESS:    1087609	FORWARD:          0	MERGED:          0	TO_CACHE:    1087609

STLB Hit, L1D data hit: 0
STLB Hit, L2C data hit: 0
STLB Hit, LLC data hit: 0
STLB Hit, LLC data miss: 0
STLB STLB hints to L2: 0
L1D TOTAL     ACCESS:   13291736  HIT:   12686488  MISS:     605248  HIT %:    95.4464  MISS %:    4.55357   MPKI: 12.105
L1D LOAD      ACCESS:    7017084  HIT:    6498730  MISS:     518354  HIT %:     92.613  MISS %:    7.38703   MPKI: 10.3671
L1D RFO       ACCESS:    6274652  HIT:    6187758  MISS:      86894  HIT %:    98.6152  MISS %:    1.38484   MPKI: 1.73788
L1D PREFETCH  REQUESTED:          0  ISSUED:          0  USEFUL:          0  USELESS:          0
L1D USEFUL LOAD PREFETCHES:          0 PREFETCH ISSUED TO LOWER LEVEL:          0  ACCURACY: -nan
L1D TIMELY PREFETCHES:          0 LATE PREFETCHES: 0 DROPPED PREFETCHES: 0
L1D PREFETCHES SAME FILL-ORIGIN LEVEL: 0 DIFFERENT FILL-ORIGIN LEVEL: 0
L1D AVERAGE MISS LATENCY: 16.7217 cycles
L1D RQ	ACCESS:   10545182	FORWARD:          0	MERGED:    3353851	TO_CACHE:    7031984
L1D WQ	ACCESS:    6506011	FORWARD:     159347	MERGED:     131312	TO_CACHE:    6374699

L1D UNIQUE REGIONS ACCESSED: 0
L1D REGIONS CONFLICTS: 0
L1D Cross Page Prefetch Requests: 0
L1D Same Page Prefetch Requests: 0
L1D ROI Sum of L1D PQ occupancy: 0
L1D PREFETCHES PUSHED FROM L2C: 0
L1I TOTAL     ACCESS:   16030540  HIT:   11511672  MISS:    4518868  HIT %:    71.8109  MISS %:    28.1891   MPKI: 90.3774
L1I LOAD      ACCESS:    9786148  HIT:    9758151  MISS:      27997  HIT %:    99.7139  MISS %:   0.286088   MPKI: 0.55994
L1I PREFETCH  ACCESS:    6244392  HIT:    1753521  MISS:    4490871  HIT %:    28.0815  MISS %:    71.9185   MPKI: 89.8174
L1I PREFETCH  REQUESTED:    6459128  ISSUED:    6438598  USEFUL:    3406271  USELESS:    1084583
L1I USEFUL LOAD PREFETCHES:    3406271 PREFETCH ISSUED TO LOWER LEVEL:    4515401  ACCURACY: 75.4367
L1I TIMELY PREFETCHES:    3406271 LATE PREFETCHES: 11074 DROPPED PREFETCHES: 0
L1I PREFETCHES SAME FILL-ORIGIN LEVEL: 4515401 DIFFERENT FILL-ORIGIN LEVEL: 0
L1I AVERAGE MISS LATENCY: 109120 cycles
L1I RQ	ACCESS:   14216843	FORWARD:          0	MERGED:    4429330	TO_CACHE:    9787513
L1I PQ	ACCESS:    6438598	FORWARD:          0	MERGED:     143384	TO_CACHE:    6295214

BTB TOTAL     ACCESS:    6346793  HIT:    5354841  MISS:     991952  HIT %:    84.3708  MISS %:    15.6292   MPKI: 19.839
BTB BRANCH_DIRECT_JUMP	ACCESS:     771318  HIT:     694201  MISS:      77117
BTB BRANCH_INDIRECT	ACCESS:     108662  HIT:      73806  MISS:      34856
BTB BRANCH_CONDITIONAL	ACCESS:    2942980  HIT:    2730770  MISS:     212210
BTB BRANCH_DIRECT_CALL	ACCESS:    1049632  HIT:     929791  MISS:     119841
BTB BRANCH_INDIRECT_CALL	ACCESS:     212280  HIT:     143929  MISS:      68351
BTB BRANCH_RETURN	ACCESS:    1261921  HIT:     782344  MISS:     479577
BTB BRANCH_OTHER ACCESS:          0  HIT:          0  MISS:          0

L2C TOTAL     ACCESS:    5573233  HIT:    5485566  MISS:      87667  HIT %:     98.427  MISS %:      1.573   MPKI: 1.75334
L2C LOAD      ACCESS:     535232  HIT:     517528  MISS:      17704  HIT %:    96.6923  MISS %:    3.30772   MPKI: 0.35408
L2C DATA LOAD MPKI: 0.3366
L2C INSTRUCTION LOAD MPKI: 0.01748
L2C RFO       ACCESS:      86894  HIT:      76604  MISS:      10290  HIT %:     88.158  MISS %:     11.842   MPKI: 0.2058
L2C PREFETCH  ACCESS:    4721092  HIT:    4665343  MISS:      55749  HIT %:    98.8192  MISS %:    1.18085   MPKI: 1.11498
L2C DATA PREFETCH MPKI: 0.61682
L2C INSTRUCTION PREFETCH MPKI: 0.49816
L2C WRITEBACK ACCESS:     229197  HIT:     225491  MISS:       3706  HIT %:    98.3831  MISS %:    1.61695   MPKI: 0.07412
L2C LOAD TRANSLATION ACCESS:        549  HIT:        437  MISS:        112  HIT %:    79.5993  MISS %:    20.4007   MPKI: 0.00224
L2C TRANSLATION FROM L1D PREFETCHER ACCESS:        269  HIT:        163  MISS:        106  HIT %:    60.5948  MISS %:    39.4052   MPKI: 0.00212
L2C PREFETCH  REQUESTED:     223115  ISSUED:     223115  USEFUL:      25434  USELESS:      30248
L2C USEFUL LOAD PREFETCHES:      25434 PREFETCH ISSUED TO LOWER LEVEL:      57031  ACCURACY: 44.5968
L2C TIMELY PREFETCHES:      25434 LATE PREFETCHES: 1282 DROPPED PREFETCHES: 0
L2C PREFETCHES SAME FILL-ORIGIN LEVEL: 32123 DIFFERENT FILL-ORIGIN LEVEL: 0
L2C AVERAGE MISS LATENCY: 35.8173 cycles
L2C RQ	ACCESS:     622989	FORWARD:          0	MERGED:          0	TO_CACHE:     622944
L2C WQ	ACCESS:     229197	FORWARD:         45	MERGED:          0	TO_CACHE:     229197
L2C PQ	ACCESS:    4725062	FORWARD:          0	MERGED:          0	TO_CACHE:    4725062

L2C Instructions Evicting Data 11208
L2C Translations Evicting Data 195
L2C Data Evicting Data 48239
L2C Instructions Evicting Instructions 14560
L2C Translations Evicting Instructions 23
L2C Data Evicting Instructions 9510
L2C Instructions Evicting Translations 14
L2C Translations Evicting Translations 0
L2C Data Evicting Translations 212
L2C Dense regions hint from L2: 0
PSCL5 TOTAL     ACCESS:        809  HIT:        809  MISS:          0  HIT %:        100  MISS %:          0   MPKI: 0
PSCL5 LOAD TRANSLATION ACCESS:        541  HIT:        541  MISS:          0  HIT %:        100  MISS %:          0   MPKI: 0
PSCL5 TRANSLATION FROM L1D PREFETCHER ACCESS:        268  HIT:        268  MISS:          0  HIT %:        100  MISS %:          0   MPKI: 0
PSCL5 PREFETCH  REQUESTED:          0  ISSUED:          0  USEFUL:          0  USELESS:          0
PSCL5 USEFUL LOAD PREFETCHES:          0 PREFETCH ISSUED TO LOWER LEVEL:          0  ACCURACY: -nan
PSCL5 TIMELY PREFETCHES:          0 LATE PREFETCHES: 0 DROPPED PREFETCHES: 0
PSCL5 PREFETCHES SAME FILL-ORIGIN LEVEL: 0 DIFFERENT FILL-ORIGIN LEVEL: 0

PSCL4 TOTAL     ACCESS:        535  HIT:        534  MISS:          1  HIT %:    99.8131  MISS %:   0.186916   MPKI: 2e-05
PSCL4 LOAD TRANSLATION ACCESS:        355  HIT:        354  MISS:          1  HIT %:    99.7183  MISS %:    0.28169   MPKI: 2e-05
PSCL4 TRANSLATION FROM L1D PREFETCHER ACCESS:        180  HIT:        180  MISS:          0  HIT %:        100  MISS %:          0   MPKI: 0
PSCL4 PREFETCH  REQUESTED:          0  ISSUED:          0  USEFUL:          0  USELESS:          0
PSCL4 USEFUL LOAD PREFETCHES:          0 PREFETCH ISSUED TO LOWER LEVEL:          0  ACCURACY: -nan
PSCL4 TIMELY PREFETCHES:          0 LATE PREFETCHES: 0 DROPPED PREFETCHES: 0
PSCL4 PREFETCHES SAME FILL-ORIGIN LEVEL: 0 DIFFERENT FILL-ORIGIN LEVEL: 0

PSCL3 TOTAL     ACCESS:        619  HIT:        618  MISS:          1  HIT %:    99.8384  MISS %:   0.161551   MPKI: 2e-05
PSCL3 LOAD TRANSLATION ACCESS:        439  HIT:        438  MISS:          1  HIT %:    99.7722  MISS %:    0.22779   MPKI: 2e-05
PSCL3 TRANSLATION FROM L1D PREFETCHER ACCESS:        180  HIT:        180  MISS:          0  HIT %:        100  MISS %:          0   MPKI: 0
PSCL3 PREFETCH  REQUESTED:          0  ISSUED:          0  USEFUL:          0  USELESS:          0
PSCL3 USEFUL LOAD PREFETCHES:          0 PREFETCH ISSUED TO LOWER LEVEL:          0  ACCURACY: -nan
PSCL3 TIMELY PREFETCHES:          0 LATE PREFETCHES: 0 DROPPED PREFETCHES: 0
PSCL3 PREFETCHES SAME FILL-ORIGIN LEVEL: 0 DIFFERENT FILL-ORIGIN LEVEL: 0

PSCL2 TOTAL     ACCESS:        809  HIT:        802  MISS:          7  HIT %:    99.1347  MISS %:   0.865266   MPKI: 0.00014
PSCL2 LOAD TRANSLATION ACCESS:        542  HIT:        535  MISS:          7  HIT %:    98.7085  MISS %:    1.29151   MPKI: 0.00014
PSCL2 TRANSLATION FROM L1D PREFETCHER ACCESS:        267  HIT:        267  MISS:          0  HIT %:        100  MISS %:          0   MPKI: 0
PSCL2 PREFETCH  REQUESTED:          0  ISSUED:          0  USEFUL:          0  USELESS:          0
PSCL2 USEFUL LOAD PREFETCHES:          0 PREFETCH ISSUED TO LOWER LEVEL:          0  ACCURACY: -nan
PSCL2 TIMELY PREFETCHES:          0 LATE PREFETCHES: 0 DROPPED PREFETCHES: 0
PSCL2 PREFETCHES SAME FILL-ORIGIN LEVEL: 0 DIFFERENT FILL-ORIGIN LEVEL: 0

LLC TOTAL     ACCESS:     115800  HIT:     111402  MISS:       4398  HIT %:    96.2021  MISS %:    3.79793   MPKI: 0.08796
LLC LOAD      ACCESS:      16422  HIT:      16153  MISS:        269  HIT %:     98.362  MISS %:    1.63805   MPKI: 0.00538
LLC RFO       ACCESS:      10290  HIT:       8511  MISS:       1779  HIT %:    82.7114  MISS %:    17.2886   MPKI: 0.03558
LLC PREFETCH  ACCESS:      57031  HIT:      54766  MISS:       2265  HIT %:    96.0285  MISS %:    3.97152   MPKI: 0.0453
LLC WRITEBACK ACCESS:      31839  HIT:      31763  MISS:         76  HIT %:    99.7613  MISS %:   0.238701   MPKI: 0.00152
LLC LOAD TRANSLATION ACCESS:        112  HIT:        103  MISS:          9  HIT %:    91.9643  MISS %:    8.03571   MPKI: 0.00018
LLC TRANSLATION FROM L1D PREFETCHER ACCESS:        106  HIT:        106  MISS:          0  HIT %:        100  MISS %:          0   MPKI: 0
LLC PREFETCH  REQUESTED:          0  ISSUED:          0  USEFUL:       1111  USELESS:        158
LLC USEFUL LOAD PREFETCHES:       1111 PREFETCH ISSUED TO LOWER LEVEL:       2265  ACCURACY: 49.0508
LLC TIMELY PREFETCHES:       1111 LATE PREFETCHES: 0 DROPPED PREFETCHES: 0
LLC PREFETCHES SAME FILL-ORIGIN LEVEL: 0 DIFFERENT FILL-ORIGIN LEVEL: 0
LLC AVERAGE MISS LATENCY: 142.853 cycles
LLC RQ	ACCESS:      26930	FORWARD:          0	MERGED:          0	TO_CACHE:      26930
LLC WQ	ACCESS:      31839	FORWARD:          0	MERGED:          0	TO_CACHE:      31839
LLC PQ	ACCESS:      57031	FORWARD:          0	MERGED:          0	TO_CACHE:      57031

LLC Dense regions hint to LLC: 0

RAW hits: 1494095
Loads Generated: 12039278
Loads sent to L1D: 10545182
Stores Generated: 6506011
Stores sent to L1D: 6506011
Major fault: 0 Minor fault: 1244
Allocated PAGES: 1244
I-Shadow cache 408 bytes
Touched + WorthPF tables 6144 bytes 
MMA filter 174 bytes 
FNL filter 272 bytes 
TOTAL PREFETCHER STORAGE SIZE: 25174 bytes
CPU 0 L1I next line prefetcher final stats
[Bingo] PHT Access: 96435
[Bingo] PHT Hit PC+Addr: 59531
[Bingo] PHT Hit PC+Offs: 8091
[Bingo] PHT Miss: 28813
[Bingo] Prefetch PC+Addr: 0
[Bingo] Prefetch PC+Offs: 0
[Bingo] Useful PC+Addr: 0
[Bingo] Useful PC+Offs: 0
[Bingo] Useless PC+Addr: 0
[Bingo] Useless PC+Offs: 0
[Bingo] L1 Prefetch per Region: 0
[Bingo] L2 Prefetch per Region: 4.31821
[Bingo] L3 Prefetch per Region: 0
[Bingo] No Prefetch per Region: 27.6818
[Bingo] Number of Voters Mean: 11.1817
[Bingo] Number of Voters SD: 13.465
PHT read accesses: 375346
PHT write accesses: 41398
AT read accesses: 402157
AT write accesses: 433403
FT read accesses: 187254
FT write accesses: 96435
PS read accesses: 139155
PS write accesses: 67622
PHT tag read accesses: 1473183
PHT tag write accesses: 100929
AT tag read accesses: 11604308
AT tag write accesses: 443555
FT tag read accesses: 7494069
FT tag write accesses: 212422
PS tag read accesses: 10533254
PS tag write accesses: 206577

DRAM Statistics
 CHANNEL 0
 RQ ROW_BUFFER_HIT:       3305  ROW_BUFFER_MISS:       1017
 DBUS_CONGESTED:          0
 WQ ROW_BUFFER_HIT:          6  ROW_BUFFER_MISS:        235  FULL:          0

 AVG_CONGESTED_CYCLE: -
 All warmup complete: 2
Channel 0 Bank busy for read cycles: 0
Channel 0 Bank busy for write cycles: 0
Channel 0
Rank 0
0banks busy for read cycles: 62236059
0banks busy for write cycles: 149
1banks busy for read cycles: 49848
1banks busy for write cycles: 18495
2banks busy for read cycles: 59449
2banks busy for write cycles: 4250
3banks busy for read cycles: 8582
3banks busy for write cycles: 1692
4banks busy for read cycles: 30009
4banks busy for write cycles: 1045
5banks busy for read cycles: 20
5banks busy for write cycles: 0
6banks busy for read cycles: 292
6banks busy for write cycles: 0
7banks busy for read cycles: 100
7banks busy for write cycles: 0
8banks busy for read cycles: 91
8banks busy for write cycles: 0

CPU 0 Branch Prediction Accuracy: 99.926% MPKI: 0.14472 Average ROB Occupancy at Mispredict: 59.6399
Branch types
NOT_BRANCH: 40220865 80.4417%
BRANCH_DIRECT_JUMP: 771318 1.54264%
BRANCH_INDIRECT: 108662 0.217324%
BRANCH_CONDITIONAL: 6375020 12.75%
BRANCH_DIRECT_CALL: 1049632 2.09926%
BRANCH_INDIRECT_CALL: 212280 0.42456%
BRANCH_RETURN: 1261921 2.52384%
BRANCH_OTHER: 0 0%

DRAM PAGES: 1048576
Allocated PAGES: 1244
