Initialize SIGNATURE TABLE
ST_SET: 1
ST_WAY: 16
ST_TAG_BIT: 16
ST_TAG_MASK: ffff

Initialize PATTERN TABLE
PT_SET: 16
PT_WAY: 4
SIG_DELTA_BIT: 7
C_SIG_BIT: 4
C_DELTA_BIT: 4

Initialize PREFETCH FILTER
FILTER_SET: 1024

Initialize PERCEPTRON
PERC_ENTRIES: 4096
PERC_FEATURES: 9

*** ChampSim Multicore Out-of-Order Simulator ***

Warmup Instructions: 50000000
Simulation Instructions: 50000000
Number of CPUs: 1
LLC sets: 2048
LLC ways: 16
Off-chip DRAM Size: 4096 MB Channels: 1 Width: 64-bit Data Rate: 6400 MT/s
CPU 0 runs ../IPC-traces//server_018.champsimtrace.xz
.xz
BTB has LRU replacement policy
ITLB has LRU replacement policy
DTLB has LRU replacement policy
STLB has LRU replacement policy
CPU 0 L1I next line prefetcher
L1I has LRU replacement policy
L1D has LRU replacement policy
Initialize SRRIP state for L2C
Initialize DRRIP state for LLC
Heartbeat CPU 0 instructions: 10000003 cycles: 3278094 heartbeat IPC: 3.05055 cumulative IPC: 3.05055 (Simulation time: 0 hr 3 min 35 sec) 
Heartbeat CPU 0 instructions: 20000001 cycles: 6550317 heartbeat IPC: 3.05603 cumulative IPC: 3.05329 (Simulation time: 0 hr 6 min 24 sec) 
Heartbeat CPU 0 instructions: 30000001 cycles: 9706335 heartbeat IPC: 3.16855 cumulative IPC: 3.09076 (Simulation time: 0 hr 9 min 5 sec) 
Heartbeat CPU 0 instructions: 40000002 cycles: 12886764 heartbeat IPC: 3.14423 cumulative IPC: 3.10396 (Simulation time: 0 hr 11 min 35 sec) 
Heartbeat CPU 0 instructions: 50000003 cycles: 16153617 heartbeat IPC: 3.06105 cumulative IPC: 3.09528 (Simulation time: 0 hr 13 min 49 sec) 

Warmup complete CPU 0 instructions: 50000003 cycles: 16153617 (Simulation time: 0 hr 13 min 49 sec) 

Heartbeat CPU 0 instructions: 60000000 cycles: 36446273 heartbeat IPC: 0.492789 cumulative IPC: 0.492789 (Simulation time: 0 hr 17 min 29 sec) 
Heartbeat CPU 0 instructions: 70000000 cycles: 56663531 heartbeat IPC: 0.494627 cumulative IPC: 0.493706 (Simulation time: 0 hr 21 min 6 sec) 
Heartbeat CPU 0 instructions: 80000000 cycles: 76507584 heartbeat IPC: 0.503929 cumulative IPC: 0.497068 (Simulation time: 0 hr 24 min 41 sec) 
Heartbeat CPU 0 instructions: 90000000 cycles: 96006199 heartbeat IPC: 0.512857 cumulative IPC: 0.500923 (Simulation time: 0 hr 29 min 52 sec) 
Heartbeat CPU 0 instructions: 100000001 cycles: 115436020 heartbeat IPC: 0.514673 cumulative IPC: 0.503614 (Simulation time: 0 hr 34 min 32 sec) 
Finished CPU 0 instructions: 50000002 cycles: 99282404 cumulative IPC: 0.503614 (Simulation time: 0 hr 34 min 32 sec) 

ChampSim completed all CPUs

Region of Interest Statistics

CPU 0 cumulative IPC: 0.503614 instructions: 50000002 cycles: 99282404

CPU 0 Average Load ROB stall cycles: 3.06047e+07
CPU 0 Fraction of times ROB stalled by Loads: 46.1034
CPU 0 Percentage of Load stall cycles in Total stall cycles: 2.65051e+08
Issued all: 51002935
Issued LT all: 45698303
rob_not_full_when_issued_lt_all: 16919419
Issued LT one: 39907116
rob_not_full_when_issued_lt_one: 12906624
FVP critical_dynamic_instances_0: 2671903
FVP unique_critical_ips_0: 2927
 Total stall cycles: 81708128
 Total load stall cycles: 216568104678615
Unique Load IPs: 6266
CPU 0 NUM of IPS identified critical: 0
CPU 0 Num of Load IPs stalling ROB: 0
Threshold modification factor: 0
Trouble in retire width: -nan
MaC = Marked as critical.
lt_50_percent_before_Mac: 0
gt_90_percent_before_Mac: 0
gt_75_percent_before_Mac: 0
gt_50_percent_before_Mac: 0
stall_proportion_bin_same_before_after: 0
stall_proportion_bin_lower_before_after: 0
stall_proportion_bin_upper_before_after: 0
average_stall_proportion_before: -nan
average_stall_proportion_after: -nan
Critical IP stalls, total frequency: 0
Non-critical IP stalls, total frequency: 0
Total Freq all stalling IPs: 0
Critical_IP_Detector_Accuracy_70: 0.000341647
Critical_IP_Detector_Accuracy_80: 0.000341647
Critical_IP_Detector_Accuracy_90: 0.000341647
Critical_IP_Detector_Coverage_70: 1
Critical_IP_Detector_Coverage_80: 1
Critical_IP_Detector_Coverage_90: 1
stat_90_percent_critical_ip_stalls_freq: 287191
stat_90_percent_non_critical_ip_stalls_freq: 18446744073709264425
AVERAGE_ROB_Occupancy_90_Percent_Critical_IP_Stalls: 313.065
AVERAGE_ROB_Occupancy_90_Percent_Non_Critical_IP_Stalls: 2.94299e-11
Critical_IP_ROB_Stalls_Bucket_0: 0
Non-critical_IP_ROB_Stalls_Bucket_0: 488217
Critical_IP_ROB_Stalls_Bucket_1: 0
Non-critical_IP_ROB_Stalls_Bucket_1: 609154
Critical_IP_ROB_Stalls_Bucket_2: 0
Non-critical_IP_ROB_Stalls_Bucket_2: 450900
Critical_IP_ROB_Stalls_Bucket_3: 0
Non-critical_IP_ROB_Stalls_Bucket_3: 275369
Critical_IP_ROB_Stalls_Bucket_4: 0
Non-critical_IP_ROB_Stalls_Bucket_4: 168159
Critical_IP_ROB_Stalls_Bucket_5: 0
Non-critical_IP_ROB_Stalls_Bucket_5: 149909
Critical_IP_ROB_Stalls_Bucket_6: 0
Non-critical_IP_ROB_Stalls_Bucket_6: 1120708
0 => IPs accounting for >50 percent of stalls, 1 => 55, 2 => 60, 3 => 65 and so on till 90.
percent50: inf num IPs:  1
percent55: inf num IPs: 1
percent60: inf num IPs: 1
percent65: inf num IPs: 1
percent70: inf num IPs: 1
percent75: inf num IPs: 1
percent80: inf num IPs: 1
percent85: inf num IPs: 1
percent90: inf num IPs: 1
Critical_ROB_Stalls_Percent_0_Bucket_0: 661
Non-critical_ROB_Stalls_Percent_0_Bucket_0: 487556
Critical_ROB_Stalls_Percent_0_Bucket_1: 3497
Non-critical_ROB_Stalls_Percent_0_Bucket_1: 605657
Critical_ROB_Stalls_Percent_0_Bucket_2: 13337
Non-critical_ROB_Stalls_Percent_0_Bucket_2: 437563
Critical_ROB_Stalls_Percent_0_Bucket_3: 20024
Non-critical_ROB_Stalls_Percent_0_Bucket_3: 255345
Critical_ROB_Stalls_Percent_0_Bucket_4: 15433
Non-critical_ROB_Stalls_Percent_0_Bucket_4: 152726
Critical_ROB_Stalls_Percent_0_Bucket_5: 15459
Non-critical_ROB_Stalls_Percent_0_Bucket_5: 134450
Critical_ROB_Stalls_Percent_0_Bucket_6: 218780
Non-critical_ROB_Stalls_Percent_0_Bucket_6: 901928
Critical_ROB_Stalls_Percent_1_Bucket_0: 661
Non-critical_ROB_Stalls_Percent_1_Bucket_0: 487556
Critical_ROB_Stalls_Percent_1_Bucket_1: 3497
Non-critical_ROB_Stalls_Percent_1_Bucket_1: 605657
Critical_ROB_Stalls_Percent_1_Bucket_2: 13337
Non-critical_ROB_Stalls_Percent_1_Bucket_2: 437563
Critical_ROB_Stalls_Percent_1_Bucket_3: 20024
Non-critical_ROB_Stalls_Percent_1_Bucket_3: 255345
Critical_ROB_Stalls_Percent_1_Bucket_4: 15433
Non-critical_ROB_Stalls_Percent_1_Bucket_4: 152726
Critical_ROB_Stalls_Percent_1_Bucket_5: 15459
Non-critical_ROB_Stalls_Percent_1_Bucket_5: 134450
Critical_ROB_Stalls_Percent_1_Bucket_6: 218780
Non-critical_ROB_Stalls_Percent_1_Bucket_6: 901928
Critical_ROB_Stalls_Percent_2_Bucket_0: 661
Non-critical_ROB_Stalls_Percent_2_Bucket_0: 487556
Critical_ROB_Stalls_Percent_2_Bucket_1: 3497
Non-critical_ROB_Stalls_Percent_2_Bucket_1: 605657
Critical_ROB_Stalls_Percent_2_Bucket_2: 13337
Non-critical_ROB_Stalls_Percent_2_Bucket_2: 437563
Critical_ROB_Stalls_Percent_2_Bucket_3: 20024
Non-critical_ROB_Stalls_Percent_2_Bucket_3: 255345
Critical_ROB_Stalls_Percent_2_Bucket_4: 15433
Non-critical_ROB_Stalls_Percent_2_Bucket_4: 152726
Critical_ROB_Stalls_Percent_2_Bucket_5: 15459
Non-critical_ROB_Stalls_Percent_2_Bucket_5: 134450
Critical_ROB_Stalls_Percent_2_Bucket_6: 218780
Non-critical_ROB_Stalls_Percent_2_Bucket_6: 901928
Critical_ROB_Stalls_Percent_3_Bucket_0: 661
Non-critical_ROB_Stalls_Percent_3_Bucket_0: 487556
Critical_ROB_Stalls_Percent_3_Bucket_1: 3497
Non-critical_ROB_Stalls_Percent_3_Bucket_1: 605657
Critical_ROB_Stalls_Percent_3_Bucket_2: 13337
Non-critical_ROB_Stalls_Percent_3_Bucket_2: 437563
Critical_ROB_Stalls_Percent_3_Bucket_3: 20024
Non-critical_ROB_Stalls_Percent_3_Bucket_3: 255345
Critical_ROB_Stalls_Percent_3_Bucket_4: 15433
Non-critical_ROB_Stalls_Percent_3_Bucket_4: 152726
Critical_ROB_Stalls_Percent_3_Bucket_5: 15459
Non-critical_ROB_Stalls_Percent_3_Bucket_5: 134450
Critical_ROB_Stalls_Percent_3_Bucket_6: 218780
Non-critical_ROB_Stalls_Percent_3_Bucket_6: 901928
Critical_ROB_Stalls_Percent_4_Bucket_0: 661
Non-critical_ROB_Stalls_Percent_4_Bucket_0: 487556
Critical_ROB_Stalls_Percent_4_Bucket_1: 3497
Non-critical_ROB_Stalls_Percent_4_Bucket_1: 605657
Critical_ROB_Stalls_Percent_4_Bucket_2: 13337
Non-critical_ROB_Stalls_Percent_4_Bucket_2: 437563
Critical_ROB_Stalls_Percent_4_Bucket_3: 20024
Non-critical_ROB_Stalls_Percent_4_Bucket_3: 255345
Critical_ROB_Stalls_Percent_4_Bucket_4: 15433
Non-critical_ROB_Stalls_Percent_4_Bucket_4: 152726
Critical_ROB_Stalls_Percent_4_Bucket_5: 15459
Non-critical_ROB_Stalls_Percent_4_Bucket_5: 134450
Critical_ROB_Stalls_Percent_4_Bucket_6: 218780
Non-critical_ROB_Stalls_Percent_4_Bucket_6: 901928
Critical_ROB_Stalls_Percent_5_Bucket_0: 661
Non-critical_ROB_Stalls_Percent_5_Bucket_0: 487556
Critical_ROB_Stalls_Percent_5_Bucket_1: 3497
Non-critical_ROB_Stalls_Percent_5_Bucket_1: 605657
Critical_ROB_Stalls_Percent_5_Bucket_2: 13337
Non-critical_ROB_Stalls_Percent_5_Bucket_2: 437563
Critical_ROB_Stalls_Percent_5_Bucket_3: 20024
Non-critical_ROB_Stalls_Percent_5_Bucket_3: 255345
Critical_ROB_Stalls_Percent_5_Bucket_4: 15433
Non-critical_ROB_Stalls_Percent_5_Bucket_4: 152726
Critical_ROB_Stalls_Percent_5_Bucket_5: 15459
Non-critical_ROB_Stalls_Percent_5_Bucket_5: 134450
Critical_ROB_Stalls_Percent_5_Bucket_6: 218780
Non-critical_ROB_Stalls_Percent_5_Bucket_6: 901928
Critical_ROB_Stalls_Percent_6_Bucket_0: 661
Non-critical_ROB_Stalls_Percent_6_Bucket_0: 487556
Critical_ROB_Stalls_Percent_6_Bucket_1: 3497
Non-critical_ROB_Stalls_Percent_6_Bucket_1: 605657
Critical_ROB_Stalls_Percent_6_Bucket_2: 13337
Non-critical_ROB_Stalls_Percent_6_Bucket_2: 437563
Critical_ROB_Stalls_Percent_6_Bucket_3: 20024
Non-critical_ROB_Stalls_Percent_6_Bucket_3: 255345
Critical_ROB_Stalls_Percent_6_Bucket_4: 15433
Non-critical_ROB_Stalls_Percent_6_Bucket_4: 152726
Critical_ROB_Stalls_Percent_6_Bucket_5: 15459
Non-critical_ROB_Stalls_Percent_6_Bucket_5: 134450
Critical_ROB_Stalls_Percent_6_Bucket_6: 218780
Non-critical_ROB_Stalls_Percent_6_Bucket_6: 901928
Critical_ROB_Stalls_Percent_7_Bucket_0: 661
Non-critical_ROB_Stalls_Percent_7_Bucket_0: 487556
Critical_ROB_Stalls_Percent_7_Bucket_1: 3497
Non-critical_ROB_Stalls_Percent_7_Bucket_1: 605657
Critical_ROB_Stalls_Percent_7_Bucket_2: 13337
Non-critical_ROB_Stalls_Percent_7_Bucket_2: 437563
Critical_ROB_Stalls_Percent_7_Bucket_3: 20024
Non-critical_ROB_Stalls_Percent_7_Bucket_3: 255345
Critical_ROB_Stalls_Percent_7_Bucket_4: 15433
Non-critical_ROB_Stalls_Percent_7_Bucket_4: 152726
Critical_ROB_Stalls_Percent_7_Bucket_5: 15459
Non-critical_ROB_Stalls_Percent_7_Bucket_5: 134450
Critical_ROB_Stalls_Percent_7_Bucket_6: 218780
Non-critical_ROB_Stalls_Percent_7_Bucket_6: 901928
Critical_ROB_Stalls_Percent_8_Bucket_0: 661
Non-critical_ROB_Stalls_Percent_8_Bucket_0: 487556
Critical_ROB_Stalls_Percent_8_Bucket_1: 3497
Non-critical_ROB_Stalls_Percent_8_Bucket_1: 605657
Critical_ROB_Stalls_Percent_8_Bucket_2: 13337
Non-critical_ROB_Stalls_Percent_8_Bucket_2: 437563
Critical_ROB_Stalls_Percent_8_Bucket_3: 20024
Non-critical_ROB_Stalls_Percent_8_Bucket_3: 255345
Critical_ROB_Stalls_Percent_8_Bucket_4: 15433
Non-critical_ROB_Stalls_Percent_8_Bucket_4: 152726
Critical_ROB_Stalls_Percent_8_Bucket_5: 15459
Non-critical_ROB_Stalls_Percent_8_Bucket_5: 134450
Critical_ROB_Stalls_Percent_8_Bucket_6: 218780
Non-critical_ROB_Stalls_Percent_8_Bucket_6: 901928
Average ROB occupancy Load Stall Begin: 185.446
Average ROB occupancy Load Stall End: 193.965
Min ROB occupancy Load Stall Begin: 1
Max ROB occupancy Load Stall Begin: 352
Min ROB occupancy Load Stall End: 1
Max ROB occupancy Load Stall End: 352
Average ROB occupancy Critical Load Stall Begin: -nan
Average ROB occupancy Critical Load Stall End: -nan
Min ROB occupancy Critical Load Stall Begin: 400
Max ROB occupancy Critical Load Stall Begin: 0
Min ROB occupancy Critical Load Stall End: 400
Max ROB occupancy Critical Load Stall End: 0
 ROB Load Stall Begin Bucket Count 0: 694725
 ROB Load Stall End Bucket Count 0: 488217
 ROB Critical Load Stall Begin Bucket Count 0: 0
 ROB Critical Load Stall End Bucket Count 0: 0
 ROB Load Stall Begin Bucket Count 1: 541039
 ROB Load Stall End Bucket Count 1: 609154
 ROB Critical Load Stall Begin Bucket Count 1: 0
 ROB Critical Load Stall End Bucket Count 1: 0
 ROB Load Stall Begin Bucket Count 2: 399598
 ROB Load Stall End Bucket Count 2: 450900
 ROB Critical Load Stall Begin Bucket Count 2: 0
 ROB Critical Load Stall End Bucket Count 2: 0
 ROB Load Stall Begin Bucket Count 3: 230402
 ROB Load Stall End Bucket Count 3: 275369
 ROB Critical Load Stall Begin Bucket Count 3: 0
 ROB Critical Load Stall End Bucket Count 3: 0
 ROB Load Stall Begin Bucket Count 4: 154488
 ROB Load Stall End Bucket Count 4: 168159
 ROB Critical Load Stall Begin Bucket Count 4: 0
 ROB Critical Load Stall End Bucket Count 4: 0
 ROB Load Stall Begin Bucket Count 5: 151192
 ROB Load Stall End Bucket Count 5: 149909
 ROB Critical Load Stall Begin Bucket Count 5: 0
 ROB Critical Load Stall End Bucket Count 5: 0
 ROB Load Stall Begin Bucket Count 6: 1090972
 ROB Load Stall End Bucket Count 6: 1120708
 ROB Critical Load Stall Begin Bucket Count 6: 0
 ROB Critical Load Stall End Bucket Count 6: 0
PIST Tag Read Accesses: 0
PIST Read Accesses: 0
PIST Tag Write Accesses: 0
PIST Write Accesses: 0
Criticality detector called times: 0
Max global_stall_cycles_count: 0
Threshold Modified: 0 times, factor: 0
ITLB TOTAL     ACCESS:   10386484  HIT:    9912493  MISS:     473991  HIT %:    95.4365  MISS %:    4.56354   MPKI: 9.47982
ITLB LOAD TRANSLATION ACCESS:    8473456  HIT:    8461924  MISS:      11532  HIT %:    99.8639  MISS %:   0.136096   MPKI: 0.23064
ITLB TRANSLATION FROM L1D PREFETCHER ACCESS:    1913028  HIT:    1450569  MISS:     462459  HIT %:    75.8258  MISS %:    24.1742   MPKI: 9.24918
ITLB PREFETCH  REQUESTED:          0  ISSUED:          0  USEFUL:     413064  USELESS:      49394
ITLB USEFUL LOAD PREFETCHES:     413064 PREFETCH ISSUED TO LOWER LEVEL:          0  ACCURACY: inf
ITLB TIMELY PREFETCHES:     413064 LATE PREFETCHES: 297 DROPPED PREFETCHES: 0
ITLB PREFETCHES SAME FILL-ORIGIN LEVEL: 0 DIFFERENT FILL-ORIGIN LEVEL: 0
ITLB AVERAGE MISS LATENCY: 43201.9 cycles
ITLB RQ	ACCESS:   14805195	FORWARD:          0	MERGED:    4364751	TO_CACHE:   10440444

DTLB TOTAL     ACCESS:   10810001  HIT:   10386763  MISS:     423238  HIT %:    96.0848  MISS %:    3.91524   MPKI: 8.46476
DTLB LOAD TRANSLATION ACCESS:   10810001  HIT:   10386763  MISS:     423238  HIT %:    96.0848  MISS %:    3.91524   MPKI: 8.46476
DTLB PREFETCH  REQUESTED:          0  ISSUED:          0  USEFUL:          0  USELESS:          0
DTLB USEFUL LOAD PREFETCHES:          0 PREFETCH ISSUED TO LOWER LEVEL:          0  ACCURACY: -nan
DTLB TIMELY PREFETCHES:          0 LATE PREFETCHES: 0 DROPPED PREFETCHES: 0
DTLB PREFETCHES SAME FILL-ORIGIN LEVEL: 0 DIFFERENT FILL-ORIGIN LEVEL: 0
DTLB AVERAGE MISS LATENCY: 19.5975 cycles
DTLB RQ	ACCESS:   16051071	FORWARD:          0	MERGED:    5157163	TO_CACHE:   10893908

STLB TOTAL     ACCESS:     897228  HIT:     861318  MISS:      35910  HIT %:    95.9977  MISS %:    4.00233   MPKI: 0.7182
STLB LOAD TRANSLATION ACCESS:     434472  HIT:     399180  MISS:      35292  HIT %:     91.877  MISS %:    8.12296   MPKI: 0.70584
STLB TRANSLATION FROM L1D PREFETCHER ACCESS:     462756  HIT:     462138  MISS:        618  HIT %:    99.8665  MISS %:   0.133548   MPKI: 0.01236
STLB PREFETCH  REQUESTED:          0  ISSUED:          0  USEFUL:        423  USELESS:        179
STLB USEFUL LOAD PREFETCHES:        423 PREFETCH ISSUED TO LOWER LEVEL:          0  ACCURACY: inf
STLB TIMELY PREFETCHES:        423 LATE PREFETCHES: 0 DROPPED PREFETCHES: 0
STLB PREFETCHES SAME FILL-ORIGIN LEVEL: 0 DIFFERENT FILL-ORIGIN LEVEL: 0
STLB AVERAGE MISS LATENCY: 129.959 cycles
STLB RQ	ACCESS:     897228	FORWARD:          0	MERGED:          0	TO_CACHE:     897228

STLB Hit, L1D data hit: 0
STLB Hit, L2C data hit: 0
STLB Hit, LLC data hit: 0
STLB Hit, LLC data miss: 0
STLB STLB hints to L2: 0
L1D TOTAL     ACCESS:   13647144  HIT:   11842742  MISS:    1804402  HIT %:    86.7782  MISS %:    13.2218   MPKI: 36.088
L1D LOAD      ACCESS:    7371359  HIT:    6534429  MISS:     836930  HIT %:    88.6462  MISS %:    11.3538   MPKI: 16.7386
L1D RFO       ACCESS:    6275785  HIT:    5308313  MISS:     967472  HIT %:     84.584  MISS %:     15.416   MPKI: 19.3494
L1D PREFETCH  REQUESTED:          0  ISSUED:          0  USEFUL:          0  USELESS:          0
L1D USEFUL LOAD PREFETCHES:          0 PREFETCH ISSUED TO LOWER LEVEL:          0  ACCURACY: -nan
L1D TIMELY PREFETCHES:          0 LATE PREFETCHES: 0 DROPPED PREFETCHES: 0
L1D PREFETCHES SAME FILL-ORIGIN LEVEL: 0 DIFFERENT FILL-ORIGIN LEVEL: 0
L1D AVERAGE MISS LATENCY: 153.212 cycles
L1D RQ	ACCESS:   11033331	FORWARD:          0	MERGED:    3502826	TO_CACHE:    7408744
L1D WQ	ACCESS:    8736102	FORWARD:     121761	MERGED:      93775	TO_CACHE:    8642327

L1D UNIQUE REGIONS ACCESSED: 0
L1D REGIONS CONFLICTS: 0
L1D Cross Page Prefetch Requests: 0
L1D Same Page Prefetch Requests: 0
L1D ROI Sum of L1D PQ occupancy: 0
L1D PREFETCHES PUSHED FROM L2C: 0
L1I TOTAL     ACCESS:   14737366  HIT:   11565790  MISS:    3171576  HIT %:    78.4794  MISS %:    21.5206   MPKI: 63.4315
L1I LOAD      ACCESS:    9888174  HIT:    9870481  MISS:      17693  HIT %:    99.8211  MISS %:   0.178931   MPKI: 0.35386
L1I PREFETCH  ACCESS:    4849192  HIT:    1695309  MISS:    3153883  HIT %:    34.9606  MISS %:    65.0394   MPKI: 63.0777
L1I PREFETCH  REQUESTED:    5107538  ISSUED:    5098682  USEFUL:    2614372  USELESS:     539452
L1I USEFUL LOAD PREFETCHES:    2614372 PREFETCH ISSUED TO LOWER LEVEL:    3159370  ACCURACY: 82.7498
L1I TIMELY PREFETCHES:    2614372 LATE PREFETCHES: 5491 DROPPED PREFETCHES: 0
L1I PREFETCHES SAME FILL-ORIGIN LEVEL: 3159370 DIFFERENT FILL-ORIGIN LEVEL: 0
L1I AVERAGE MISS LATENCY: 117438 cycles
L1I RQ	ACCESS:   14161281	FORWARD:          0	MERGED:    4269764	TO_CACHE:    9891517
L1I PQ	ACCESS:    5098682	FORWARD:          0	MERGED:     185004	TO_CACHE:    4913678

BTB TOTAL     ACCESS:    5333738  HIT:    5067581  MISS:     266157  HIT %:    95.0099  MISS %:    4.99007   MPKI: 5.32314
BTB BRANCH_DIRECT_JUMP	ACCESS:     458651  HIT:     456812  MISS:       1839
BTB BRANCH_INDIRECT	ACCESS:      48282  HIT:      48106  MISS:        176
BTB BRANCH_CONDITIONAL	ACCESS:    3005654  HIT:    2999755  MISS:       5899
BTB BRANCH_DIRECT_CALL	ACCESS:     744228  HIT:     740447  MISS:       3781
BTB BRANCH_INDIRECT_CALL	ACCESS:     166336  HIT:     137435  MISS:      28901
BTB BRANCH_RETURN	ACCESS:     910587  HIT:     685026  MISS:     225561
BTB BRANCH_OTHER ACCESS:          0  HIT:          0  MISS:          0

L2C TOTAL     ACCESS:    6559610  HIT:    4683850  MISS:    1875760  HIT %:    71.4044  MISS %:    28.5956   MPKI: 37.5152
L2C LOAD      ACCESS:     849123  HIT:     481205  MISS:     367918  HIT %:    56.6708  MISS %:    43.3292   MPKI: 7.35836
L2C DATA LOAD MPKI: 7.2591
L2C INSTRUCTION LOAD MPKI: 0.09926
L2C RFO       ACCESS:     967465  HIT:      32533  MISS:     934932  HIT %:    3.36271  MISS %:    96.6373   MPKI: 18.6986
L2C PREFETCH  ACCESS:    3544038  HIT:    3064427  MISS:     479611  HIT %:    86.4671  MISS %:    13.5329   MPKI: 9.59222
L2C DATA PREFETCH MPKI: 6.29916
L2C INSTRUCTION PREFETCH MPKI: 3.29306
L2C WRITEBACK ACCESS:    1155546  HIT:    1089032  MISS:      66514  HIT %:    94.2439  MISS %:    5.75607   MPKI: 1.33028
L2C LOAD TRANSLATION ACCESS:      42483  HIT:      16429  MISS:      26054  HIT %:    38.6719  MISS %:    61.3281   MPKI: 0.52108
L2C TRANSLATION FROM L1D PREFETCHER ACCESS:        955  HIT:        224  MISS:        731  HIT %:    23.4555  MISS %:    76.5445   MPKI: 0.01462
L2C PREFETCH  REQUESTED:     412356  ISSUED:     412349  USEFUL:     285262  USELESS:     195852
L2C USEFUL LOAD PREFETCHES:     285262 PREFETCH ISSUED TO LOWER LEVEL:     494992  ACCURACY: 57.6296
L2C TIMELY PREFETCHES:     285262 LATE PREFETCHES: 3400 DROPPED PREFETCHES: 0
L2C PREFETCHES SAME FILL-ORIGIN LEVEL: 318358 DIFFERENT FILL-ORIGIN LEVEL: 11981
L2C AVERAGE MISS LATENCY: 172.111 cycles
L2C RQ	ACCESS:    1860042	FORWARD:          0	MERGED:          0	TO_CACHE:    1860026
L2C WQ	ACCESS:    1155547	FORWARD:         16	MERGED:          0	TO_CACHE:    1155547
L2C PQ	ACCESS:    3571719	FORWARD:          0	MERGED:        561	TO_CACHE:    3571158

L2C Instructions Evicting Data 150794
L2C Translations Evicting Data 24090
L2C Data Evicting Data 1443684
L2C Instructions Evicting Instructions 16383
L2C Translations Evicting Instructions 2388
L2C Data Evicting Instructions 145786
L2C Instructions Evicting Translations 2439
L2C Translations Evicting Translations 307
L2C Data Evicting Translations 23375
L2C Dense regions hint from L2: 0
PSCL5 TOTAL     ACCESS:      35910  HIT:      35910  MISS:          0  HIT %:        100  MISS %:          0   MPKI: 0
PSCL5 LOAD TRANSLATION ACCESS:      35292  HIT:      35292  MISS:          0  HIT %:        100  MISS %:          0   MPKI: 0
PSCL5 TRANSLATION FROM L1D PREFETCHER ACCESS:        618  HIT:        618  MISS:          0  HIT %:        100  MISS %:          0   MPKI: 0
PSCL5 PREFETCH  REQUESTED:          0  ISSUED:          0  USEFUL:          0  USELESS:          0
PSCL5 USEFUL LOAD PREFETCHES:          0 PREFETCH ISSUED TO LOWER LEVEL:          0  ACCURACY: -nan
PSCL5 TIMELY PREFETCHES:          0 LATE PREFETCHES: 0 DROPPED PREFETCHES: 0
PSCL5 PREFETCHES SAME FILL-ORIGIN LEVEL: 0 DIFFERENT FILL-ORIGIN LEVEL: 0

PSCL4 TOTAL     ACCESS:      33519  HIT:      33414  MISS:        105  HIT %:    99.6867  MISS %:   0.313255   MPKI: 0.0021
PSCL4 LOAD TRANSLATION ACCESS:      32936  HIT:      32831  MISS:        105  HIT %:    99.6812  MISS %:     0.3188   MPKI: 0.0021
PSCL4 TRANSLATION FROM L1D PREFETCHER ACCESS:        583  HIT:        583  MISS:          0  HIT %:        100  MISS %:          0   MPKI: 0
PSCL4 PREFETCH  REQUESTED:          0  ISSUED:          0  USEFUL:          0  USELESS:          0
PSCL4 USEFUL LOAD PREFETCHES:          0 PREFETCH ISSUED TO LOWER LEVEL:          0  ACCURACY: -nan
PSCL4 TIMELY PREFETCHES:          0 LATE PREFETCHES: 0 DROPPED PREFETCHES: 0
PSCL4 PREFETCHES SAME FILL-ORIGIN LEVEL: 0 DIFFERENT FILL-ORIGIN LEVEL: 0

PSCL3 TOTAL     ACCESS:      35891  HIT:      35786  MISS:        105  HIT %:    99.7074  MISS %:   0.292552   MPKI: 0.0021
PSCL3 LOAD TRANSLATION ACCESS:      35308  HIT:      35203  MISS:        105  HIT %:    99.7026  MISS %:   0.297383   MPKI: 0.0021
PSCL3 TRANSLATION FROM L1D PREFETCHER ACCESS:        583  HIT:        583  MISS:          0  HIT %:        100  MISS %:          0   MPKI: 0
PSCL3 PREFETCH  REQUESTED:          0  ISSUED:          0  USEFUL:          0  USELESS:          0
PSCL3 USEFUL LOAD PREFETCHES:          0 PREFETCH ISSUED TO LOWER LEVEL:          0  ACCURACY: -nan
PSCL3 TIMELY PREFETCHES:          0 LATE PREFETCHES: 0 DROPPED PREFETCHES: 0
PSCL3 PREFETCHES SAME FILL-ORIGIN LEVEL: 0 DIFFERENT FILL-ORIGIN LEVEL: 0

PSCL2 TOTAL     ACCESS:      35910  HIT:      28565  MISS:       7345  HIT %:    79.5461  MISS %:    20.4539   MPKI: 0.1469
PSCL2 LOAD TRANSLATION ACCESS:      35573  HIT:      28228  MISS:       7345  HIT %:    79.3523  MISS %:    20.6477   MPKI: 0.1469
PSCL2 TRANSLATION FROM L1D PREFETCHER ACCESS:        337  HIT:        337  MISS:          0  HIT %:        100  MISS %:          0   MPKI: 0
PSCL2 PREFETCH  REQUESTED:          0  ISSUED:          0  USEFUL:          0  USELESS:          0
PSCL2 USEFUL LOAD PREFETCHES:          0 PREFETCH ISSUED TO LOWER LEVEL:          0  ACCURACY: -nan
PSCL2 TIMELY PREFETCHES:          0 LATE PREFETCHES: 0 DROPPED PREFETCHES: 0
PSCL2 PREFETCHES SAME FILL-ORIGIN LEVEL: 0 DIFFERENT FILL-ORIGIN LEVEL: 0

LLC TOTAL     ACCESS:    2907120  HIT:    1462504  MISS:    1444616  HIT %:    50.3077  MISS %:    49.6923   MPKI: 28.8923
LLC LOAD      ACCESS:     364520  HIT:     278764  MISS:      85756  HIT %:    76.4743  MISS %:    23.5257   MPKI: 1.71512
LLC RFO       ACCESS:     934920  HIT:     210812  MISS:     724108  HIT %:    22.5487  MISS %:    77.4513   MPKI: 14.4822
LLC PREFETCH  ACCESS:     494970  HIT:     180158  MISS:     314812  HIT %:    36.3978  MISS %:    63.6022   MPKI: 6.29624
LLC WRITEBACK ACCESS:    1085925  HIT:     774326  MISS:     311599  HIT %:    71.3057  MISS %:    28.6943   MPKI: 6.23198
LLC LOAD TRANSLATION ACCESS:      26054  HIT:      18137  MISS:       7917  HIT %:    69.6131  MISS %:    30.3869   MPKI: 0.15834
LLC TRANSLATION FROM L1D PREFETCHER ACCESS:        731  HIT:        307  MISS:        424  HIT %:    41.9973  MISS %:    58.0027   MPKI: 0.00848
LLC PREFETCH  REQUESTED:          0  ISSUED:          0  USEFUL:       3208  USELESS:     312080
LLC USEFUL LOAD PREFETCHES:       3208 PREFETCH ISSUED TO LOWER LEVEL:     314819  ACCURACY: 1.019
LLC TIMELY PREFETCHES:       3208 LATE PREFETCHES: 7 DROPPED PREFETCHES: 0
LLC PREFETCHES SAME FILL-ORIGIN LEVEL: 6643 DIFFERENT FILL-ORIGIN LEVEL: 0
LLC AVERAGE MISS LATENCY: 185.41 cycles
LLC RQ	ACCESS:    1326235	FORWARD:          0	MERGED:          0	TO_CACHE:    1326225
LLC WQ	ACCESS:    1085925	FORWARD:         10	MERGED:          0	TO_CACHE:    1085925
LLC PQ	ACCESS:     494992	FORWARD:          0	MERGED:          2	TO_CACHE:     494990

LLC Dense regions hint to LLC: 0

RAW hits: 1365220
Loads Generated: 12398552
Loads sent to L1D: 11033331
Stores Generated: 8736102
Stores sent to L1D: 8736102
Major fault: 0 Minor fault: 22612
Allocated PAGES: 22612
I-Shadow cache 408 bytes
Touched + WorthPF tables 6144 bytes 
MMA filter 174 bytes 
FNL filter 272 bytes 
TOTAL PREFETCHER STORAGE SIZE: 25174 bytes
CPU 0 L1I next line prefetcher final stats
------------------
Depth Distribution
------------------
depth 0: 62448
depth 1: 36289
depth 2: 11548
depth 3: 4989
depth 4: 4241
depth 5: 10053
depth 6: 18011
depth 7: 33757
depth 8: 79506
depth 9: 148672
depth 10: 16503
depth 11: 18191
depth 12: 8
depth 13: 0
depth 14: 0
depth 15: 0
depth 16: 0
depth 17: 0
depth 18: 0
depth 19: 0
depth 20: 0
depth 21: 0
depth 22: 0
depth 23: 0
depth 24: 0
depth 25: 0
depth 26: 0
depth 27: 0
depth 28: 0
depth 29: 0
Total: 444216
------------------
ST read accesses: 340045
ST write accesses: 45699
PT read accesses: 16168408
PT write accesses: 485670
FILTER read accesses: 4986765
FILTER write accesses: 4548617
GHR read accesses: 1416126
GHR write accesses: 192534
PERC read accesses: 115206507
PERC write accesses: 4206488
GHR counter read accesses: 771488
GHR counter write accesses: 1147935
GHR ip read accesses: 2595042
GHR ip write accesses: 1542976
ST tag read accesses: 10879767
ST tag write accesses: 1204552

DRAM Statistics
 CHANNEL 0
 RQ ROW_BUFFER_HIT:     434374  ROW_BUFFER_MISS:     698523
 DBUS_CONGESTED:        900
 WQ ROW_BUFFER_HIT:     176484  ROW_BUFFER_MISS:     590754  FULL:       4641

 AVG_CONGESTED_CYCLE: 4
 All warmup complete: 2
Channel 0 Bank busy for read cycles: 0
Channel 0 Bank busy for write cycles: 0
Channel 0
Rank 0
0banks busy for read cycles: 28563317
0banks busy for write cycles: 46969
1banks busy for read cycles: 15691218
1banks busy for write cycles: 6750462
2banks busy for read cycles: 9843295
2banks busy for write cycles: 3113251
3banks busy for read cycles: 4985832
3banks busy for write cycles: 1723821
4banks busy for read cycles: 3213829
4banks busy for write cycles: 1275012
5banks busy for read cycles: 1218015
5banks busy for write cycles: 1084654
6banks busy for read cycles: 1085493
6banks busy for write cycles: 1094331
7banks busy for read cycles: 1468233
7banks busy for write cycles: 1846285
8banks busy for read cycles: 5355548
8banks busy for write cycles: 10922840

CPU 0 Branch Prediction Accuracy: 99.7114% MPKI: 0.47678 Average ROB Occupancy at Mispredict: 93.5534
Branch types
NOT_BRANCH: 41740729 83.4815%
BRANCH_DIRECT_JUMP: 458651 0.917302%
BRANCH_INDIRECT: 48282 0.096564%
BRANCH_CONDITIONAL: 5930847 11.8617%
BRANCH_DIRECT_CALL: 744228 1.48846%
BRANCH_INDIRECT_CALL: 166336 0.332672%
BRANCH_RETURN: 910587 1.82117%
BRANCH_OTHER: 0 0%

DRAM PAGES: 1048576
Allocated PAGES: 22612
