Initialize SIGNATURE TABLE
ST_SET: 1
ST_WAY: 256
ST_TAG_BIT: 16
ST_TAG_MASK: ffff

Initialize PATTERN TABLE
PT_SET: 512
PT_WAY: 4
SIG_DELTA_BIT: 7
C_SIG_BIT: 4
C_DELTA_BIT: 4

Initialize PREFETCH FILTER
FILTER_SET: 1024

Initialize PERCEPTRON
PERC_ENTRIES: 4096
PERC_FEATURES: 9

*** ChampSim Multicore Out-of-Order Simulator ***

Warmup Instructions: 50000000
Simulation Instructions: 50000000
Number of CPUs: 1
LLC sets: 2048
LLC ways: 16
Off-chip DRAM Size: 4096 MB Channels: 1 Width: 64-bit Data Rate: 6400 MT/s
CPU 0 runs ../IPC-traces//server_031.champsimtrace.xz
.xz
NUM_OF_IPS_IN_CRITICAL_IP_TRAINING: 64
NUM_OF_CRITICAL_IP_TRAINING_TABLE_WAYS: 2
NUM_OF_CRITICAL_IP_TRAINING_TABLE_SETS: 32
WOBBLY_CRITICAL_IP_CACHE_SETS: 32
WOBBLY_CRITICAL_IP_CACHE_WAYS: 4
BTB has LRU replacement policy
ITLB has LRU replacement policy
DTLB has LRU replacement policy
STLB has LRU replacement policy
CPU 0 L1I next line prefetcher
L1I has LRU replacement policy
L1D has LRU replacement policy
Initialize SRRIP state for L2C
Initialize DRRIP state for LLC
Heartbeat CPU 0 instructions: 10000000 cycles: 2882524 heartbeat IPC: 3.46918 cumulative IPC: 3.46918 (Simulation time: 0 hr 3 min 52 sec) 
Heartbeat CPU 0 instructions: 20000000 cycles: 5761225 heartbeat IPC: 3.47379 cumulative IPC: 3.47148 (Simulation time: 0 hr 6 min 58 sec) 
Heartbeat CPU 0 instructions: 30000002 cycles: 8637973 heartbeat IPC: 3.47615 cumulative IPC: 3.47304 (Simulation time: 0 hr 9 min 46 sec) 
Heartbeat CPU 0 instructions: 40000003 cycles: 11514690 heartbeat IPC: 3.47619 cumulative IPC: 3.47382 (Simulation time: 0 hr 12 min 12 sec) 
Heartbeat CPU 0 instructions: 50000001 cycles: 14393872 heartbeat IPC: 3.47321 cumulative IPC: 3.4737 (Simulation time: 0 hr 14 min 26 sec) 

Warmup complete CPU 0 instructions: 50000001 cycles: 14393872 (Simulation time: 0 hr 14 min 26 sec) 

% increase in all ip prefetch 421.324
% increase in all ip prefetch -2.46703
Heartbeat CPU 0 instructions: 60000002 cycles: 30811007 heartbeat IPC: 0.60912 cumulative IPC: 0.60912 (Simulation time: 0 hr 17 min 4 sec) 
Heartbeat CPU 0 instructions: 70000001 cycles: 47257495 heartbeat IPC: 0.608032 cumulative IPC: 0.608576 (Simulation time: 0 hr 19 min 44 sec) 
*** Reached end of trace for Core: 0 Repeating trace: ../IPC-traces//server_031.champsimtrace.xz
Heartbeat CPU 0 instructions: 80000000 cycles: 63540722 heartbeat IPC: 0.614129 cumulative IPC: 0.610416 (Simulation time: 0 hr 22 min 23 sec) 
Heartbeat CPU 0 instructions: 90000000 cycles: 79823758 heartbeat IPC: 0.614136 cumulative IPC: 0.611341 (Simulation time: 0 hr 24 min 52 sec) 
Heartbeat CPU 0 instructions: 100000000 cycles: 96025274 heartbeat IPC: 0.617226 cumulative IPC: 0.612509 (Simulation time: 0 hr 27 min 52 sec) 
Finished CPU 0 instructions: 50000000 cycles: 81631408 cumulative IPC: 0.612509 (Simulation time: 0 hr 27 min 52 sec) 

ChampSim completed all CPUs

Region of Interest Statistics

CPU 0 cumulative IPC: 0.612509 instructions: 50000000 cycles: 81631408

CPU 0 Average Load ROB stall cycles: 1.96063e+07
CPU 0 Fraction of times ROB stalled by Loads: 35.4297
CPU 0 Percentage of Load stall cycles in Total stall cycles: 2.71541e+08
Issued all: 27897510
Issued LT all: 22040029
rob_not_full_when_issued_lt_all: 21909077
Issued LT one: 17116983
rob_not_full_when_issued_lt_one: 17003456
 Total stall cycles: 69197188
 Total load stall cycles: 187898611543961
CPU 0 NUM of IPS identified critical: 0
CPU 0 Num of Load IPs stalling ROB: 10879
Threshold modification factor: -1
Max PIST entries: 64
Min PIST entries: 0
Avg PIST entries: 32
Trouble in retire width: 0.892947
MaC = Marked as critical.
lt_50_percent_before_Mac: 0
gt_90_percent_before_Mac: 0
gt_75_percent_before_Mac: 0
gt_50_percent_before_Mac: 0
stall_proportion_bin_same_before_after: 0
stall_proportion_bin_lower_before_after: 0
stall_proportion_bin_upper_before_after: 0
average_stall_proportion_before: -nan
average_stall_proportion_after: -nan
Critical IP stalls, total frequency: 0
Non-critical IP stalls, total frequency: 3395432
Total Freq all stalling IPs: 3395432
stat_90_percent_critical_ip_stalls_freq: 3056158
stat_90_percent_non_critical_ip_stalls_freq: 339274
Critical_IP_ROB_Stalls_Bucket_0: 0
Non-critical_IP_ROB_Stalls_Bucket_0: 2340498
Critical_IP_ROB_Stalls_Bucket_1: 0
Non-critical_IP_ROB_Stalls_Bucket_1: 708401
Critical_IP_ROB_Stalls_Bucket_2: 0
Non-critical_IP_ROB_Stalls_Bucket_2: 238805
Critical_IP_ROB_Stalls_Bucket_3: 0
Non-critical_IP_ROB_Stalls_Bucket_3: 67265
Critical_IP_ROB_Stalls_Bucket_4: 0
Non-critical_IP_ROB_Stalls_Bucket_4: 24528
Critical_IP_ROB_Stalls_Bucket_5: 0
Non-critical_IP_ROB_Stalls_Bucket_5: 8263
Critical_IP_ROB_Stalls_Bucket_6: 0
Non-critical_IP_ROB_Stalls_Bucket_6: 7672
0 => IPs accounting for >50 percent of stalls, 1 => 55, 2 => 60, 3 => 65 and so on till 90.
percent50: 50.0112 num IPs:  479
percent55: 55.0224 num IPs: 678
percent60: 60.018 num IPs: 883
percent65: 65.0102 num IPs: 1094
percent70: 70.0177 num IPs: 1310
percent75: 75.0158 num IPs: 1526
percent80: 80.0038 num IPs: 1745
percent85: 85.0018 num IPs: 1974
percent90: 90.0079 num IPs: 2236
Critical_ROB_Stalls_Percent_0_Bucket_0: 977945
Non-critical_ROB_Stalls_Percent_0_Bucket_0: 1362553
Critical_ROB_Stalls_Percent_0_Bucket_1: 439340
Non-critical_ROB_Stalls_Percent_0_Bucket_1: 269061
Critical_ROB_Stalls_Percent_0_Bucket_2: 183889
Non-critical_ROB_Stalls_Percent_0_Bucket_2: 54916
Critical_ROB_Stalls_Percent_0_Bucket_3: 60638
Non-critical_ROB_Stalls_Percent_0_Bucket_3: 6627
Critical_ROB_Stalls_Percent_0_Bucket_4: 21824
Non-critical_ROB_Stalls_Percent_0_Bucket_4: 2704
Critical_ROB_Stalls_Percent_0_Bucket_5: 7367
Non-critical_ROB_Stalls_Percent_0_Bucket_5: 896
Critical_ROB_Stalls_Percent_0_Bucket_6: 7095
Non-critical_ROB_Stalls_Percent_0_Bucket_6: 577
Critical_ROB_Stalls_Percent_1_Bucket_0: 1109362
Non-critical_ROB_Stalls_Percent_1_Bucket_0: 1231136
Critical_ROB_Stalls_Percent_1_Bucket_1: 470444
Non-critical_ROB_Stalls_Percent_1_Bucket_1: 237957
Critical_ROB_Stalls_Percent_1_Bucket_2: 190357
Non-critical_ROB_Stalls_Percent_1_Bucket_2: 48448
Critical_ROB_Stalls_Percent_1_Bucket_3: 61051
Non-critical_ROB_Stalls_Percent_1_Bucket_3: 6214
Critical_ROB_Stalls_Percent_1_Bucket_4: 22573
Non-critical_ROB_Stalls_Percent_1_Bucket_4: 1955
Critical_ROB_Stalls_Percent_1_Bucket_5: 7370
Non-critical_ROB_Stalls_Percent_1_Bucket_5: 893
Critical_ROB_Stalls_Percent_1_Bucket_6: 7095
Non-critical_ROB_Stalls_Percent_1_Bucket_6: 577
Critical_ROB_Stalls_Percent_2_Bucket_0: 1214047
Non-critical_ROB_Stalls_Percent_2_Bucket_0: 1126451
Critical_ROB_Stalls_Percent_2_Bucket_1: 522492
Non-critical_ROB_Stalls_Percent_2_Bucket_1: 185909
Critical_ROB_Stalls_Percent_2_Bucket_2: 202329
Non-critical_ROB_Stalls_Percent_2_Bucket_2: 36476
Critical_ROB_Stalls_Percent_2_Bucket_3: 61842
Non-critical_ROB_Stalls_Percent_2_Bucket_3: 5423
Critical_ROB_Stalls_Percent_2_Bucket_4: 22695
Non-critical_ROB_Stalls_Percent_2_Bucket_4: 1833
Critical_ROB_Stalls_Percent_2_Bucket_5: 7372
Non-critical_ROB_Stalls_Percent_2_Bucket_5: 891
Critical_ROB_Stalls_Percent_2_Bucket_6: 7096
Non-critical_ROB_Stalls_Percent_2_Bucket_6: 576
Critical_ROB_Stalls_Percent_3_Bucket_0: 1340965
Non-critical_ROB_Stalls_Percent_3_Bucket_0: 999533
Critical_ROB_Stalls_Percent_3_Bucket_1: 559214
Non-critical_ROB_Stalls_Percent_3_Bucket_1: 149187
Critical_ROB_Stalls_Percent_3_Bucket_2: 208103
Non-critical_ROB_Stalls_Percent_3_Bucket_2: 30702
Critical_ROB_Stalls_Percent_3_Bucket_3: 61923
Non-critical_ROB_Stalls_Percent_3_Bucket_3: 5342
Critical_ROB_Stalls_Percent_3_Bucket_4: 22701
Non-critical_ROB_Stalls_Percent_3_Bucket_4: 1827
Critical_ROB_Stalls_Percent_3_Bucket_5: 7372
Non-critical_ROB_Stalls_Percent_3_Bucket_5: 891
Critical_ROB_Stalls_Percent_3_Bucket_6: 7099
Non-critical_ROB_Stalls_Percent_3_Bucket_6: 573
Critical_ROB_Stalls_Percent_4_Bucket_0: 1485706
Non-critical_ROB_Stalls_Percent_4_Bucket_0: 854792
Critical_ROB_Stalls_Percent_4_Bucket_1: 581710
Non-critical_ROB_Stalls_Percent_4_Bucket_1: 126691
Critical_ROB_Stalls_Percent_4_Bucket_2: 210835
Non-critical_ROB_Stalls_Percent_4_Bucket_2: 27970
Critical_ROB_Stalls_Percent_4_Bucket_3: 61980
Non-critical_ROB_Stalls_Percent_4_Bucket_3: 5285
Critical_ROB_Stalls_Percent_4_Bucket_4: 22701
Non-critical_ROB_Stalls_Percent_4_Bucket_4: 1827
Critical_ROB_Stalls_Percent_4_Bucket_5: 7372
Non-critical_ROB_Stalls_Percent_4_Bucket_5: 891
Critical_ROB_Stalls_Percent_4_Bucket_6: 7099
Non-critical_ROB_Stalls_Percent_4_Bucket_6: 573
Critical_ROB_Stalls_Percent_5_Bucket_0: 1623663
Non-critical_ROB_Stalls_Percent_5_Bucket_0: 716835
Critical_ROB_Stalls_Percent_5_Bucket_1: 605407
Non-critical_ROB_Stalls_Percent_5_Bucket_1: 102994
Critical_ROB_Stalls_Percent_5_Bucket_2: 218285
Non-critical_ROB_Stalls_Percent_5_Bucket_2: 20520
Critical_ROB_Stalls_Percent_5_Bucket_3: 62549
Non-critical_ROB_Stalls_Percent_5_Bucket_3: 4716
Critical_ROB_Stalls_Percent_5_Bucket_4: 22733
Non-critical_ROB_Stalls_Percent_5_Bucket_4: 1795
Critical_ROB_Stalls_Percent_5_Bucket_5: 7377
Non-critical_ROB_Stalls_Percent_5_Bucket_5: 886
Critical_ROB_Stalls_Percent_5_Bucket_6: 7102
Non-critical_ROB_Stalls_Percent_5_Bucket_6: 570
Critical_ROB_Stalls_Percent_6_Bucket_0: 1771997
Non-critical_ROB_Stalls_Percent_6_Bucket_0: 568501
Critical_ROB_Stalls_Percent_6_Bucket_1: 622060
Non-critical_ROB_Stalls_Percent_6_Bucket_1: 86341
Critical_ROB_Stalls_Percent_6_Bucket_2: 222603
Non-critical_ROB_Stalls_Percent_6_Bucket_2: 16202
Critical_ROB_Stalls_Percent_6_Bucket_3: 62575
Non-critical_ROB_Stalls_Percent_6_Bucket_3: 4690
Critical_ROB_Stalls_Percent_6_Bucket_4: 22763
Non-critical_ROB_Stalls_Percent_6_Bucket_4: 1765
Critical_ROB_Stalls_Percent_6_Bucket_5: 7377
Non-critical_ROB_Stalls_Percent_6_Bucket_5: 886
Critical_ROB_Stalls_Percent_6_Bucket_6: 7102
Non-critical_ROB_Stalls_Percent_6_Bucket_6: 570
Critical_ROB_Stalls_Percent_7_Bucket_0: 1921198
Non-critical_ROB_Stalls_Percent_7_Bucket_0: 419300
Critical_ROB_Stalls_Percent_7_Bucket_1: 640460
Non-critical_ROB_Stalls_Percent_7_Bucket_1: 67941
Critical_ROB_Stalls_Percent_7_Bucket_2: 224589
Non-critical_ROB_Stalls_Percent_7_Bucket_2: 14216
Critical_ROB_Stalls_Percent_7_Bucket_3: 62671
Non-critical_ROB_Stalls_Percent_7_Bucket_3: 4594
Critical_ROB_Stalls_Percent_7_Bucket_4: 22772
Non-critical_ROB_Stalls_Percent_7_Bucket_4: 1756
Critical_ROB_Stalls_Percent_7_Bucket_5: 7380
Non-critical_ROB_Stalls_Percent_7_Bucket_5: 883
Critical_ROB_Stalls_Percent_7_Bucket_6: 7110
Non-critical_ROB_Stalls_Percent_7_Bucket_6: 562
Critical_ROB_Stalls_Percent_8_Bucket_0: 2072737
Non-critical_ROB_Stalls_Percent_8_Bucket_0: 267761
Critical_ROB_Stalls_Percent_8_Bucket_1: 654076
Non-critical_ROB_Stalls_Percent_8_Bucket_1: 54325
Critical_ROB_Stalls_Percent_8_Bucket_2: 227008
Non-critical_ROB_Stalls_Percent_8_Bucket_2: 11797
Critical_ROB_Stalls_Percent_8_Bucket_3: 63734
Non-critical_ROB_Stalls_Percent_8_Bucket_3: 3531
Critical_ROB_Stalls_Percent_8_Bucket_4: 23382
Non-critical_ROB_Stalls_Percent_8_Bucket_4: 1146
Critical_ROB_Stalls_Percent_8_Bucket_5: 7975
Non-critical_ROB_Stalls_Percent_8_Bucket_5: 288
Critical_ROB_Stalls_Percent_8_Bucket_6: 7246
Non-critical_ROB_Stalls_Percent_8_Bucket_6: 426
Average ROB occupancy Load Stall Begin: 37.6909
Average ROB occupancy Load Stall End: 46.242
Min ROB occupancy Load Stall Begin: 1
Max ROB occupancy Load Stall Begin: 352
Min ROB occupancy Load Stall End: 1
Max ROB occupancy Load Stall End: 352
Average ROB occupancy Critical Load Stall Begin: -nan
Average ROB occupancy Critical Load Stall End: -nan
Min ROB occupancy Critical Load Stall Begin: 400
Max ROB occupancy Critical Load Stall Begin: 0
Min ROB occupancy Critical Load Stall End: 400
Max ROB occupancy Critical Load Stall End: 0
 ROB Load Stall Begin Bucket Count 0: 2608972
 ROB Load Stall End Bucket Count 0: 2340498
 ROB Critical Load Stall Begin Bucket Count 0: 0
 ROB Critical Load Stall End Bucket Count 0: 0
 ROB Load Stall Begin Bucket Count 1: 516487
 ROB Load Stall End Bucket Count 1: 708401
 ROB Critical Load Stall Begin Bucket Count 1: 0
 ROB Critical Load Stall End Bucket Count 1: 0
 ROB Load Stall Begin Bucket Count 2: 184330
 ROB Load Stall End Bucket Count 2: 238805
 ROB Critical Load Stall Begin Bucket Count 2: 0
 ROB Critical Load Stall End Bucket Count 2: 0
 ROB Load Stall Begin Bucket Count 3: 53327
 ROB Load Stall End Bucket Count 3: 67265
 ROB Critical Load Stall Begin Bucket Count 3: 0
 ROB Critical Load Stall End Bucket Count 3: 0
 ROB Load Stall Begin Bucket Count 4: 19016
 ROB Load Stall End Bucket Count 4: 24528
 ROB Critical Load Stall Begin Bucket Count 4: 0
 ROB Critical Load Stall End Bucket Count 4: 0
 ROB Load Stall Begin Bucket Count 5: 6486
 ROB Load Stall End Bucket Count 5: 8263
 ROB Critical Load Stall Begin Bucket Count 5: 0
 ROB Critical Load Stall End Bucket Count 5: 0
 ROB Load Stall Begin Bucket Count 6: 6814
 ROB Load Stall End Bucket Count 6: 7672
 ROB Critical Load Stall Begin Bucket Count 6: 0
 ROB Critical Load Stall End Bucket Count 6: 0
PIST Tag Read Accesses: 2472134
PIST Read Accesses: 1236067
PIST Tag Write Accesses: 2472134
PIST Write Accesses: 1236067
Criticality detector called times: 3305525
Max global_stall_cycles_count: 2178219
Threshold Modified: 1 times, factor: -1
Sturdy critical IP cache stats: 
 Unused entries: 0
CIC Tag Read Accesses: 0
CIC Read Accesses: 0
CIC Tag Write Accesses: 0
CIC Write Accesses: 0
Wobbly critical IP cache stats: 
 Unused entries: 123
CIC Tag Read Accesses: 84252117
CIC Read Accesses: 0
CIC Tag Write Accesses: 5
CIC Write Accesses: 0
ITLB TOTAL     ACCESS:   10404694  HIT:    9648280  MISS:     756414  HIT %:    92.7301  MISS %:    7.26993   MPKI: 15.1283
ITLB LOAD TRANSLATION ACCESS:    8206148  HIT:    8154236  MISS:      51912  HIT %:    99.3674  MISS %:   0.632599   MPKI: 1.03824
ITLB TRANSLATION FROM L1D PREFETCHER ACCESS:    2198546  HIT:    1494044  MISS:     704502  HIT %:     67.956  MISS %:     32.044   MPKI: 14.09
ITLB PREFETCH  REQUESTED:          0  ISSUED:          0  USEFUL:     564935  USELESS:     139566
ITLB USEFUL LOAD PREFETCHES:     564935 PREFETCH ISSUED TO LOWER LEVEL:          0  ACCURACY: inf
ITLB TIMELY PREFETCHES:     564935 LATE PREFETCHES: 45 DROPPED PREFETCHES: 5548
ITLB PREFETCHES SAME FILL-ORIGIN LEVEL: 0 DIFFERENT FILL-ORIGIN LEVEL: 0
ITLB AVERAGE MISS LATENCY: 3077.21 cycles
ITLB RQ	ACCESS:   15915441	FORWARD:          0	MERGED:    5460702	TO_CACHE:   10454739

DTLB TOTAL     ACCESS:   11397858  HIT:   10839913  MISS:     557945  HIT %:    95.1048  MISS %:    4.89517   MPKI: 11.1589
DTLB LOAD TRANSLATION ACCESS:   11397858  HIT:   10839913  MISS:     557945  HIT %:    95.1048  MISS %:    4.89517   MPKI: 11.1589
DTLB PREFETCH  REQUESTED:          0  ISSUED:          0  USEFUL:          0  USELESS:          0
DTLB USEFUL LOAD PREFETCHES:          0 PREFETCH ISSUED TO LOWER LEVEL:          0  ACCURACY: -nan
DTLB TIMELY PREFETCHES:          0 LATE PREFETCHES: 0 DROPPED PREFETCHES: 0
DTLB PREFETCHES SAME FILL-ORIGIN LEVEL: 0 DIFFERENT FILL-ORIGIN LEVEL: 0
DTLB AVERAGE MISS LATENCY: 10.9953 cycles
DTLB RQ	ACCESS:   14923580	FORWARD:          0	MERGED:    3498105	TO_CACHE:   11425475

STLB TOTAL     ACCESS:    1314359  HIT:    1298749  MISS:      15610  HIT %:    98.8123  MISS %:    1.18765   MPKI: 0.3122
STLB LOAD TRANSLATION ACCESS:     609812  HIT:     595905  MISS:      13907  HIT %:    97.7195  MISS %:    2.28054   MPKI: 0.27814
STLB TRANSLATION FROM L1D PREFETCHER ACCESS:     704547  HIT:     702844  MISS:       1703  HIT %:    99.7583  MISS %:   0.241716   MPKI: 0.03406
STLB PREFETCH  REQUESTED:          0  ISSUED:          0  USEFUL:       1514  USELESS:        178
STLB USEFUL LOAD PREFETCHES:       1514 PREFETCH ISSUED TO LOWER LEVEL:          0  ACCURACY: inf
STLB TIMELY PREFETCHES:       1514 LATE PREFETCHES: 0 DROPPED PREFETCHES: 5548
STLB PREFETCHES SAME FILL-ORIGIN LEVEL: 0 DIFFERENT FILL-ORIGIN LEVEL: 0
STLB AVERAGE MISS LATENCY: 76.839 cycles
STLB RQ	ACCESS:    1319907	FORWARD:          0	MERGED:          0	TO_CACHE:    1319907

STLB Hit, L1D data hit: 0
STLB Hit, L2C data hit: 0
STLB Hit, LLC data hit: 0
STLB Hit, LLC data miss: 0
STLB STLB hints to L2: 0
L1D TOTAL     ACCESS:   14390829  HIT:   13151868  MISS:    1238961  HIT %:    91.3906  MISS %:    8.60938   MPKI: 24.7792
L1D LOAD      ACCESS:    7966958  HIT:    7031127  MISS:     935831  HIT %:    88.2536  MISS %:    11.7464   MPKI: 18.7166
L1D RFO       ACCESS:    6423871  HIT:    6120741  MISS:     303130  HIT %:    95.2812  MISS %:    4.71881   MPKI: 6.0626
L1D PREFETCH  REQUESTED:          0  ISSUED:          0  USEFUL:          0  USELESS:          0
L1D USEFUL LOAD PREFETCHES:          0 PREFETCH ISSUED TO LOWER LEVEL:          0  ACCURACY: -nan
L1D TIMELY PREFETCHES:          0 LATE PREFETCHES: 0 DROPPED PREFETCHES: 0
L1D PREFETCHES SAME FILL-ORIGIN LEVEL: 0 DIFFERENT FILL-ORIGIN LEVEL: 0
L1D AVERAGE MISS LATENCY: 22.6088 cycles
L1D RQ	ACCESS:   11357317	FORWARD:          0	MERGED:    3198576	TO_CACHE:    8009245
L1D WQ	ACCESS:    6987103	FORWARD:     149496	MERGED:      72768	TO_CACHE:    6914335

L1D UNIQUE REGIONS ACCESSED: 0
L1D REGIONS CONFLICTS: 0
L1D Cross Page Prefetch Requests: 0
L1D Same Page Prefetch Requests: 0
L1D ROI Sum of L1D PQ occupancy: 0
L1D PREFETCHES PUSHED FROM L2C: 0
L1I TOTAL     ACCESS:   15824362  HIT:   11482438  MISS:    4341924  HIT %:    72.5618  MISS %:    27.4382   MPKI: 86.8385
L1I LOAD      ACCESS:    9702283  HIT:    9628648  MISS:      73635  HIT %:    99.2411  MISS %:   0.758945   MPKI: 1.4727
L1I PREFETCH  ACCESS:    6122079  HIT:    1853790  MISS:    4268289  HIT %:    30.2804  MISS %:    69.7196   MPKI: 85.3658
L1I PREFETCH  REQUESTED:    6345460  ISSUED:    6337795  USEFUL:    3054651  USELESS:    1213675
L1I USEFUL LOAD PREFETCHES:    3054651 PREFETCH ISSUED TO LOWER LEVEL:    4282007  ACCURACY: 71.3369
L1I TIMELY PREFETCHES:    3054651 LATE PREFETCHES: 13723 DROPPED PREFETCHES: 12061
L1I PREFETCHES SAME FILL-ORIGIN LEVEL: 4282007 DIFFERENT FILL-ORIGIN LEVEL: 0
L1I AVERAGE MISS LATENCY: 172242 cycles
L1I RQ	ACCESS:   13647610	FORWARD:          0	MERGED:    3935108	TO_CACHE:    9712502
L1I PQ	ACCESS:    6337795	FORWARD:          0	MERGED:     134856	TO_CACHE:    6202939

BTB TOTAL     ACCESS:    6108840  HIT:    4217943  MISS:    1890897  HIT %:    69.0465  MISS %:    30.9535   MPKI: 37.8179
BTB BRANCH_DIRECT_JUMP	ACCESS:     546483  HIT:     394596  MISS:     151887
BTB BRANCH_INDIRECT	ACCESS:     172434  HIT:     135682  MISS:      36752
BTB BRANCH_CONDITIONAL	ACCESS:    2972194  HIT:    2453642  MISS:     518552
BTB BRANCH_DIRECT_CALL	ACCESS:    1018498  HIT:     648527  MISS:     369971
BTB BRANCH_INDIRECT_CALL	ACCESS:     190374  HIT:     119426  MISS:      70948
BTB BRANCH_RETURN	ACCESS:    1208857  HIT:     466070  MISS:     742787
BTB BRANCH_OTHER ACCESS:          0  HIT:          0  MISS:          0

L2C TOTAL     ACCESS:    6226204  HIT:    5825029  MISS:     401175  HIT %:    93.5567  MISS %:    6.44333   MPKI: 8.0235
L2C LOAD      ACCESS:     995735  HIT:     862933  MISS:     132802  HIT %:    86.6629  MISS %:    13.3371   MPKI: 2.65604
L2C DATA LOAD MPKI: 2.4868
L2C INSTRUCTION LOAD MPKI: 0.16924
L2C RFO       ACCESS:     303130  HIT:     273394  MISS:      29736  HIT %:    90.1903  MISS %:    9.80965   MPKI: 0.59472
L2C PREFETCH  ACCESS:    4318630  HIT:    4105360  MISS:     213270  HIT %:    95.0616  MISS %:    4.93837   MPKI: 4.2654
L2C DATA PREFETCH MPKI: 0.1588
L2C INSTRUCTION PREFETCH MPKI: 4.1066
L2C WRITEBACK ACCESS:     575919  HIT:     562680  MISS:      13239  HIT %:    97.7012  MISS %:    2.29876   MPKI: 0.26478
L2C LOAD TRANSLATION ACCESS:      21273  HIT:      10016  MISS:      11257  HIT %:    47.0832  MISS %:    52.9168   MPKI: 0.22514
L2C TRANSLATION FROM L1D PREFETCHER ACCESS:      11517  HIT:      10646  MISS:        871  HIT %:    92.4373  MISS %:    7.56273   MPKI: 0.01742
L2C PREFETCH  REQUESTED:      41075  ISSUED:      41073  USEFUL:       4078  USELESS:     211410
L2C USEFUL LOAD PREFETCHES:       4078 PREFETCH ISSUED TO LOWER LEVEL:     217124  ACCURACY: 1.87819
L2C TIMELY PREFETCHES:       4078 LATE PREFETCHES: 1043 DROPPED PREFETCHES: 0
L2C PREFETCHES SAME FILL-ORIGIN LEVEL: 8983 DIFFERENT FILL-ORIGIN LEVEL: 2811
L2C AVERAGE MISS LATENCY: 42.8909 cycles
L2C RQ	ACCESS:    1331663	FORWARD:          0	MERGED:          0	TO_CACHE:    1331656
L2C WQ	ACCESS:     575919	FORWARD:          7	MERGED:          0	TO_CACHE:     575919
L2C PQ	ACCESS:    4323080	FORWARD:          0	MERGED:         38	TO_CACHE:    4323042

L2C Instructions Evicting Data 79083
L2C Translations Evicting Data 7311
L2C Data Evicting Data 84078
L2C Instructions Evicting Instructions 130911
L2C Translations Evicting Instructions 3836
L2C Data Evicting Instructions 70964
L2C Instructions Evicting Translations 3798
L2C Translations Evicting Translations 981
L2C Data Evicting Translations 6974
L2C Dense regions hint from L2: 0
PSCL5 TOTAL     ACCESS:      21158  HIT:      21158  MISS:          0  HIT %:        100  MISS %:          0   MPKI: 0
PSCL5 LOAD TRANSLATION ACCESS:      13907  HIT:      13907  MISS:          0  HIT %:        100  MISS %:          0   MPKI: 0
PSCL5 TRANSLATION FROM L1D PREFETCHER ACCESS:       7251  HIT:       7251  MISS:          0  HIT %:        100  MISS %:          0   MPKI: 0
PSCL5 PREFETCH  REQUESTED:          0  ISSUED:          0  USEFUL:          0  USELESS:          0
PSCL5 USEFUL LOAD PREFETCHES:          0 PREFETCH ISSUED TO LOWER LEVEL:          0  ACCURACY: -nan
PSCL5 TIMELY PREFETCHES:          0 LATE PREFETCHES: 0 DROPPED PREFETCHES: 0
PSCL5 PREFETCHES SAME FILL-ORIGIN LEVEL: 0 DIFFERENT FILL-ORIGIN LEVEL: 0

PSCL4 TOTAL     ACCESS:      19878  HIT:      19691  MISS:        187  HIT %:    99.0593  MISS %:   0.940739   MPKI: 0.00374
PSCL4 LOAD TRANSLATION ACCESS:      13046  HIT:      12859  MISS:        187  HIT %:    98.5666  MISS %:    1.43339   MPKI: 0.00374
PSCL4 TRANSLATION FROM L1D PREFETCHER ACCESS:       6832  HIT:       6832  MISS:          0  HIT %:        100  MISS %:          0   MPKI: 0
PSCL4 PREFETCH  REQUESTED:          0  ISSUED:          0  USEFUL:          0  USELESS:          0
PSCL4 USEFUL LOAD PREFETCHES:          0 PREFETCH ISSUED TO LOWER LEVEL:          0  ACCURACY: -nan
PSCL4 TIMELY PREFETCHES:          0 LATE PREFETCHES: 0 DROPPED PREFETCHES: 0
PSCL4 PREFETCHES SAME FILL-ORIGIN LEVEL: 0 DIFFERENT FILL-ORIGIN LEVEL: 0

PSCL3 TOTAL     ACCESS:      21008  HIT:      20818  MISS:        190  HIT %:    99.0956  MISS %:   0.904417   MPKI: 0.0038
PSCL3 LOAD TRANSLATION ACCESS:      13902  HIT:      13712  MISS:        190  HIT %:    98.6333  MISS %:    1.36671   MPKI: 0.0038
PSCL3 TRANSLATION FROM L1D PREFETCHER ACCESS:       7106  HIT:       7106  MISS:          0  HIT %:        100  MISS %:          0   MPKI: 0
PSCL3 PREFETCH  REQUESTED:          0  ISSUED:          0  USEFUL:          0  USELESS:          0
PSCL3 USEFUL LOAD PREFETCHES:          0 PREFETCH ISSUED TO LOWER LEVEL:          0  ACCURACY: -nan
PSCL3 TIMELY PREFETCHES:          0 LATE PREFETCHES: 0 DROPPED PREFETCHES: 0
PSCL3 PREFETCHES SAME FILL-ORIGIN LEVEL: 0 DIFFERENT FILL-ORIGIN LEVEL: 0

PSCL2 TOTAL     ACCESS:      17849  HIT:      10032  MISS:       7817  HIT %:    56.2048  MISS %:    43.7952   MPKI: 0.15634
PSCL2 LOAD TRANSLATION ACCESS:      14656  HIT:       6839  MISS:       7817  HIT %:    46.6635  MISS %:    53.3365   MPKI: 0.15634
PSCL2 TRANSLATION FROM L1D PREFETCHER ACCESS:       3193  HIT:       3193  MISS:          0  HIT %:        100  MISS %:          0   MPKI: 0
PSCL2 PREFETCH  REQUESTED:          0  ISSUED:          0  USEFUL:          0  USELESS:          0
PSCL2 USEFUL LOAD PREFETCHES:          0 PREFETCH ISSUED TO LOWER LEVEL:          0  ACCURACY: -nan
PSCL2 TIMELY PREFETCHES:          0 LATE PREFETCHES: 0 DROPPED PREFETCHES: 0
PSCL2 PREFETCHES SAME FILL-ORIGIN LEVEL: 0 DIFFERENT FILL-ORIGIN LEVEL: 0

LLC TOTAL     ACCESS:     431597  HIT:     391920  MISS:      39677  HIT %:    90.8069  MISS %:    9.19307   MPKI: 0.79354
LLC LOAD      ACCESS:     131762  HIT:     101979  MISS:      29783  HIT %:    77.3964  MISS %:    22.6036   MPKI: 0.59566
LLC RFO       ACCESS:      29733  HIT:      25560  MISS:       4173  HIT %:    85.9651  MISS %:    14.0349   MPKI: 0.08346
LLC PREFETCH  ACCESS:     217114  HIT:     213246  MISS:       3868  HIT %:    98.2184  MISS %:    1.78155   MPKI: 0.07736
LLC WRITEBACK ACCESS:      40860  HIT:      40576  MISS:        284  HIT %:    99.3049  MISS %:   0.695056   MPKI: 0.00568
LLC LOAD TRANSLATION ACCESS:      11257  HIT:       9710  MISS:       1547  HIT %:    86.2574  MISS %:    13.7426   MPKI: 0.03094
LLC TRANSLATION FROM L1D PREFETCHER ACCESS:        871  HIT:        849  MISS:         22  HIT %:    97.4742  MISS %:    2.52583   MPKI: 0.00044
LLC PREFETCH  REQUESTED:          0  ISSUED:          0  USEFUL:       1195  USELESS:      14147
LLC USEFUL LOAD PREFETCHES:       1195 PREFETCH ISSUED TO LOWER LEVEL:       3872  ACCURACY: 30.8626
LLC TIMELY PREFETCHES:       1195 LATE PREFETCHES: 4 DROPPED PREFETCHES: 0
LLC PREFETCHES SAME FILL-ORIGIN LEVEL: 334 DIFFERENT FILL-ORIGIN LEVEL: 0
LLC AVERAGE MISS LATENCY: 142.399 cycles
LLC RQ	ACCESS:     173624	FORWARD:          0	MERGED:          0	TO_CACHE:     173624
LLC WQ	ACCESS:      40860	FORWARD:          0	MERGED:          0	TO_CACHE:      40860
LLC PQ	ACCESS:     217124	FORWARD:          0	MERGED:          4	TO_CACHE:     217120

LLC Dense regions hint to LLC: 0

RAW hits: 1100089
Loads Generated: 12457406
Loads sent to L1D: 11357317
Stores Generated: 6987099
Stores sent to L1D: 6987103
Major fault: 0 Minor fault: 6261
Allocated PAGES: 6261
I-Shadow cache 408 bytes
Touched + WorthPF tables 6144 bytes 
MMA filter 174 bytes 
FNL filter 272 bytes 
TOTAL PREFETCHER STORAGE SIZE: 25174 bytes
CPU 0 L1I next line prefetcher final stats
------------------
Depth Distribution
------------------
depth 0: 224029
depth 1: 9819422
depth 2: 444205
depth 3: 504
depth 4: 188
depth 5: 221
depth 6: 262
depth 7: 273
depth 8: 43
depth 9: 0
depth 10: 0
depth 11: 0
depth 12: 0
depth 13: 0
depth 14: 0
depth 15: 0
depth 16: 0
depth 17: 0
depth 18: 0
depth 19: 0
depth 20: 0
depth 21: 0
depth 22: 0
depth 23: 0
depth 24: 0
depth 25: 0
depth 26: 0
depth 27: 0
depth 28: 0
depth 29: 0
Total: 10489147
------------------
ST read accesses: 4479173
ST write accesses: 736503
PT read accesses: 58292747
PT write accesses: 5987530
FILTER read accesses: 18787492
FILTER write accesses: 999157
GHR read accesses: 10873136
GHR write accesses: 681694
PERC read accesses: 375955821
PERC write accesses: 399979
GHR counter read accesses: 10431352
GHR counter write accesses: 12947103
GHR ip read accesses: 16121946
GHR ip write accesses: 20862704
ST tag read accesses: 2382724119
ST tag write accesses: 266650109

DRAM Statistics
 CHANNEL 0
 RQ ROW_BUFFER_HIT:      13333  ROW_BUFFER_MISS:      26058
 DBUS_CONGESTED:          8
 WQ ROW_BUFFER_HIT:        967  ROW_BUFFER_MISS:       3131  FULL:          0

 AVG_CONGESTED_CYCLE: 5
 All warmup complete: 2
Channel 0 Bank busy for read cycles: 0
Channel 0 Bank busy for write cycles: 0
Channel 0
Rank 0
0banks busy for read cycles: 77427598
0banks busy for write cycles: 2333
1banks busy for read cycles: 2591310
1banks busy for write cycles: 554652
2banks busy for read cycles: 478726
2banks busy for write cycles: 181468
3banks busy for read cycles: 149623
3banks busy for write cycles: 85108
4banks busy for read cycles: 36708
4banks busy for write cycles: 32341
5banks busy for read cycles: 16020
5banks busy for write cycles: 12908
6banks busy for read cycles: 12961
6banks busy for write cycles: 5658
7banks busy for read cycles: 13012
7banks busy for write cycles: 3445
8banks busy for read cycles: 23302
8banks busy for write cycles: 4236

CPU 0 Branch Prediction Accuracy: 99.6894% MPKI: 0.58048 Average ROB Occupancy at Mispredict: 90.7206
Branch types
NOT_BRANCH: 40655572 81.3111%
BRANCH_DIRECT_JUMP: 546483 1.09297%
BRANCH_INDIRECT: 172434 0.344868%
BRANCH_CONDITIONAL: 6207563 12.4151%
BRANCH_DIRECT_CALL: 1018498 2.037%
BRANCH_INDIRECT_CALL: 190374 0.380748%
BRANCH_RETURN: 1208857 2.41771%
BRANCH_OTHER: 0 0%

DRAM PAGES: 1048576
Allocated PAGES: 6261
