
*** ChampSim Multicore Out-of-Order Simulator ***

Warmup Instructions: 50000000
Simulation Instructions: 50000000
Number of CPUs: 1
LLC sets: 2048
LLC ways: 16
Off-chip DRAM Size: 4096 MB Channels: 1 Width: 64-bit Data Rate: 6400 MT/s
CPU 0 runs ../IPC-traces//server_016.champsimtrace.xz
.xz
BTB has LRU replacement policy
ITLB has LRU replacement policy
DTLB has LRU replacement policy
STLB has LRU replacement policy
CPU 0 L1I next line prefetcher
L1I has LRU replacement policy
IP Table Entries: 64
L1D has LRU replacement policy
Initialize SRRIP state for L2C
Initialize DRRIP state for LLC
Heartbeat CPU 0 instructions: 10000000 cycles: 2875559 heartbeat IPC: 3.47758 cumulative IPC: 3.47758 (Simulation time: 0 hr 2 min 21 sec) 
Heartbeat CPU 0 instructions: 20000000 cycles: 5746496 heartbeat IPC: 3.48318 cumulative IPC: 3.48038 (Simulation time: 0 hr 4 min 44 sec) 
Heartbeat CPU 0 instructions: 30000001 cycles: 8614641 heartbeat IPC: 3.48657 cumulative IPC: 3.48244 (Simulation time: 0 hr 7 min 7 sec) 
Heartbeat CPU 0 instructions: 40000001 cycles: 11768420 heartbeat IPC: 3.1708 cumulative IPC: 3.39893 (Simulation time: 0 hr 8 min 18 sec) 
Heartbeat CPU 0 instructions: 50000002 cycles: 15003884 heartbeat IPC: 3.09075 cumulative IPC: 3.33247 (Simulation time: 0 hr 9 min 8 sec) 

Warmup complete CPU 0 instructions: 50000002 cycles: 15003884 (Simulation time: 0 hr 9 min 8 sec) 

Heartbeat CPU 0 instructions: 60000001 cycles: 29626784 heartbeat IPC: 0.683859 cumulative IPC: 0.683859 (Simulation time: 0 hr 11 min 33 sec) 
Heartbeat CPU 0 instructions: 70000001 cycles: 45364393 heartbeat IPC: 0.635421 cumulative IPC: 0.65875 (Simulation time: 0 hr 14 min 7 sec) 
Heartbeat CPU 0 instructions: 80000000 cycles: 61288683 heartbeat IPC: 0.627971 cumulative IPC: 0.648161 (Simulation time: 0 hr 16 min 50 sec) 
Heartbeat CPU 0 instructions: 90000000 cycles: 76772440 heartbeat IPC: 0.645838 cumulative IPC: 0.647579 (Simulation time: 0 hr 19 min 30 sec) 
Heartbeat CPU 0 instructions: 100000000 cycles: 92501995 heartbeat IPC: 0.635746 cumulative IPC: 0.645177 (Simulation time: 0 hr 22 min 5 sec) 
Finished CPU 0 instructions: 50000000 cycles: 77498112 cumulative IPC: 0.645177 (Simulation time: 0 hr 22 min 5 sec) 

ChampSim completed all CPUs

Region of Interest Statistics

CPU 0 cumulative IPC: 0.645177 instructions: 50000000 cycles: 77498112

CPU 0 Average Load ROB stall cycles: 1.99972e+07
CPU 0 Fraction of times ROB stalled by Loads: 38.0449
CPU 0 Percentage of Load stall cycles in Total stall cycles: 2.8386e+08
Issued all: 28671830
Issued LT all: 22432813
rob_not_full_when_issued_lt_all: 22126049
Issued LT one: 18245408
rob_not_full_when_issued_lt_one: 17978445
FVP critical_dynamic_instances_0: 2518253
FVP unique_critical_ips_0: 5667
 Total stall cycles: 64389565
 Total load stall cycles: 182776538278441
Unique Load IPs: 13820
CPU 0 NUM of IPS identified critical: 0
CPU 0 Num of Load IPs stalling ROB: 0
Threshold modification factor: 0
Trouble in retire width: -nan
MaC = Marked as critical.
lt_50_percent_before_Mac: 0
gt_90_percent_before_Mac: 0
gt_75_percent_before_Mac: 0
gt_50_percent_before_Mac: 0
stall_proportion_bin_same_before_after: 0
stall_proportion_bin_lower_before_after: 0
stall_proportion_bin_upper_before_after: 0
average_stall_proportion_before: -nan
average_stall_proportion_after: -nan
Critical IP stalls, total frequency: 0
Non-critical IP stalls, total frequency: 0
Total Freq all stalling IPs: 0
Critical_IP_Detector_Accuracy_70: 0.00017646
Critical_IP_Detector_Accuracy_80: 0.00017646
Critical_IP_Detector_Accuracy_90: 0.00017646
Critical_IP_Detector_Coverage_70: 1
Critical_IP_Detector_Coverage_80: 1
Critical_IP_Detector_Coverage_90: 1
stat_90_percent_critical_ip_stalls_freq: 616066
stat_90_percent_non_critical_ip_stalls_freq: 18446744073708935550
AVERAGE_ROB_Occupancy_90_Percent_Critical_IP_Stalls: 18.0545
AVERAGE_ROB_Occupancy_90_Percent_Non_Critical_IP_Stalls: 7.41867e-12
Critical_IP_ROB_Stalls_Bucket_0: 0
Non-critical_IP_ROB_Stalls_Bucket_0: 2551807
Critical_IP_ROB_Stalls_Bucket_1: 0
Non-critical_IP_ROB_Stalls_Bucket_1: 601184
Critical_IP_ROB_Stalls_Bucket_2: 0
Non-critical_IP_ROB_Stalls_Bucket_2: 237473
Critical_IP_ROB_Stalls_Bucket_3: 0
Non-critical_IP_ROB_Stalls_Bucket_3: 46702
Critical_IP_ROB_Stalls_Bucket_4: 0
Non-critical_IP_ROB_Stalls_Bucket_4: 15137
Critical_IP_ROB_Stalls_Bucket_5: 0
Non-critical_IP_ROB_Stalls_Bucket_5: 7601
Critical_IP_ROB_Stalls_Bucket_6: 0
Non-critical_IP_ROB_Stalls_Bucket_6: 17447
0 => IPs accounting for >50 percent of stalls, 1 => 55, 2 => 60, 3 => 65 and so on till 90.
percent50: inf num IPs:  1
percent55: inf num IPs: 1
percent60: inf num IPs: 1
percent65: inf num IPs: 1
percent70: inf num IPs: 1
percent75: inf num IPs: 1
percent80: inf num IPs: 1
percent85: inf num IPs: 1
percent90: inf num IPs: 1
Critical_ROB_Stalls_Percent_0_Bucket_0: 610470
Non-critical_ROB_Stalls_Percent_0_Bucket_0: 1941337
Critical_ROB_Stalls_Percent_0_Bucket_1: 1123
Non-critical_ROB_Stalls_Percent_0_Bucket_1: 600061
Critical_ROB_Stalls_Percent_0_Bucket_2: 4473
Non-critical_ROB_Stalls_Percent_0_Bucket_2: 233000
Critical_ROB_Stalls_Percent_0_Bucket_3: 0
Non-critical_ROB_Stalls_Percent_0_Bucket_3: 46702
Critical_ROB_Stalls_Percent_0_Bucket_4: 0
Non-critical_ROB_Stalls_Percent_0_Bucket_4: 15137
Critical_ROB_Stalls_Percent_0_Bucket_5: 0
Non-critical_ROB_Stalls_Percent_0_Bucket_5: 7601
Critical_ROB_Stalls_Percent_0_Bucket_6: 0
Non-critical_ROB_Stalls_Percent_0_Bucket_6: 17447
Critical_ROB_Stalls_Percent_1_Bucket_0: 610470
Non-critical_ROB_Stalls_Percent_1_Bucket_0: 1941337
Critical_ROB_Stalls_Percent_1_Bucket_1: 1123
Non-critical_ROB_Stalls_Percent_1_Bucket_1: 600061
Critical_ROB_Stalls_Percent_1_Bucket_2: 4473
Non-critical_ROB_Stalls_Percent_1_Bucket_2: 233000
Critical_ROB_Stalls_Percent_1_Bucket_3: 0
Non-critical_ROB_Stalls_Percent_1_Bucket_3: 46702
Critical_ROB_Stalls_Percent_1_Bucket_4: 0
Non-critical_ROB_Stalls_Percent_1_Bucket_4: 15137
Critical_ROB_Stalls_Percent_1_Bucket_5: 0
Non-critical_ROB_Stalls_Percent_1_Bucket_5: 7601
Critical_ROB_Stalls_Percent_1_Bucket_6: 0
Non-critical_ROB_Stalls_Percent_1_Bucket_6: 17447
Critical_ROB_Stalls_Percent_2_Bucket_0: 610470
Non-critical_ROB_Stalls_Percent_2_Bucket_0: 1941337
Critical_ROB_Stalls_Percent_2_Bucket_1: 1123
Non-critical_ROB_Stalls_Percent_2_Bucket_1: 600061
Critical_ROB_Stalls_Percent_2_Bucket_2: 4473
Non-critical_ROB_Stalls_Percent_2_Bucket_2: 233000
Critical_ROB_Stalls_Percent_2_Bucket_3: 0
Non-critical_ROB_Stalls_Percent_2_Bucket_3: 46702
Critical_ROB_Stalls_Percent_2_Bucket_4: 0
Non-critical_ROB_Stalls_Percent_2_Bucket_4: 15137
Critical_ROB_Stalls_Percent_2_Bucket_5: 0
Non-critical_ROB_Stalls_Percent_2_Bucket_5: 7601
Critical_ROB_Stalls_Percent_2_Bucket_6: 0
Non-critical_ROB_Stalls_Percent_2_Bucket_6: 17447
Critical_ROB_Stalls_Percent_3_Bucket_0: 610470
Non-critical_ROB_Stalls_Percent_3_Bucket_0: 1941337
Critical_ROB_Stalls_Percent_3_Bucket_1: 1123
Non-critical_ROB_Stalls_Percent_3_Bucket_1: 600061
Critical_ROB_Stalls_Percent_3_Bucket_2: 4473
Non-critical_ROB_Stalls_Percent_3_Bucket_2: 233000
Critical_ROB_Stalls_Percent_3_Bucket_3: 0
Non-critical_ROB_Stalls_Percent_3_Bucket_3: 46702
Critical_ROB_Stalls_Percent_3_Bucket_4: 0
Non-critical_ROB_Stalls_Percent_3_Bucket_4: 15137
Critical_ROB_Stalls_Percent_3_Bucket_5: 0
Non-critical_ROB_Stalls_Percent_3_Bucket_5: 7601
Critical_ROB_Stalls_Percent_3_Bucket_6: 0
Non-critical_ROB_Stalls_Percent_3_Bucket_6: 17447
Critical_ROB_Stalls_Percent_4_Bucket_0: 610470
Non-critical_ROB_Stalls_Percent_4_Bucket_0: 1941337
Critical_ROB_Stalls_Percent_4_Bucket_1: 1123
Non-critical_ROB_Stalls_Percent_4_Bucket_1: 600061
Critical_ROB_Stalls_Percent_4_Bucket_2: 4473
Non-critical_ROB_Stalls_Percent_4_Bucket_2: 233000
Critical_ROB_Stalls_Percent_4_Bucket_3: 0
Non-critical_ROB_Stalls_Percent_4_Bucket_3: 46702
Critical_ROB_Stalls_Percent_4_Bucket_4: 0
Non-critical_ROB_Stalls_Percent_4_Bucket_4: 15137
Critical_ROB_Stalls_Percent_4_Bucket_5: 0
Non-critical_ROB_Stalls_Percent_4_Bucket_5: 7601
Critical_ROB_Stalls_Percent_4_Bucket_6: 0
Non-critical_ROB_Stalls_Percent_4_Bucket_6: 17447
Critical_ROB_Stalls_Percent_5_Bucket_0: 610470
Non-critical_ROB_Stalls_Percent_5_Bucket_0: 1941337
Critical_ROB_Stalls_Percent_5_Bucket_1: 1123
Non-critical_ROB_Stalls_Percent_5_Bucket_1: 600061
Critical_ROB_Stalls_Percent_5_Bucket_2: 4473
Non-critical_ROB_Stalls_Percent_5_Bucket_2: 233000
Critical_ROB_Stalls_Percent_5_Bucket_3: 0
Non-critical_ROB_Stalls_Percent_5_Bucket_3: 46702
Critical_ROB_Stalls_Percent_5_Bucket_4: 0
Non-critical_ROB_Stalls_Percent_5_Bucket_4: 15137
Critical_ROB_Stalls_Percent_5_Bucket_5: 0
Non-critical_ROB_Stalls_Percent_5_Bucket_5: 7601
Critical_ROB_Stalls_Percent_5_Bucket_6: 0
Non-critical_ROB_Stalls_Percent_5_Bucket_6: 17447
Critical_ROB_Stalls_Percent_6_Bucket_0: 610470
Non-critical_ROB_Stalls_Percent_6_Bucket_0: 1941337
Critical_ROB_Stalls_Percent_6_Bucket_1: 1123
Non-critical_ROB_Stalls_Percent_6_Bucket_1: 600061
Critical_ROB_Stalls_Percent_6_Bucket_2: 4473
Non-critical_ROB_Stalls_Percent_6_Bucket_2: 233000
Critical_ROB_Stalls_Percent_6_Bucket_3: 0
Non-critical_ROB_Stalls_Percent_6_Bucket_3: 46702
Critical_ROB_Stalls_Percent_6_Bucket_4: 0
Non-critical_ROB_Stalls_Percent_6_Bucket_4: 15137
Critical_ROB_Stalls_Percent_6_Bucket_5: 0
Non-critical_ROB_Stalls_Percent_6_Bucket_5: 7601
Critical_ROB_Stalls_Percent_6_Bucket_6: 0
Non-critical_ROB_Stalls_Percent_6_Bucket_6: 17447
Critical_ROB_Stalls_Percent_7_Bucket_0: 610470
Non-critical_ROB_Stalls_Percent_7_Bucket_0: 1941337
Critical_ROB_Stalls_Percent_7_Bucket_1: 1123
Non-critical_ROB_Stalls_Percent_7_Bucket_1: 600061
Critical_ROB_Stalls_Percent_7_Bucket_2: 4473
Non-critical_ROB_Stalls_Percent_7_Bucket_2: 233000
Critical_ROB_Stalls_Percent_7_Bucket_3: 0
Non-critical_ROB_Stalls_Percent_7_Bucket_3: 46702
Critical_ROB_Stalls_Percent_7_Bucket_4: 0
Non-critical_ROB_Stalls_Percent_7_Bucket_4: 15137
Critical_ROB_Stalls_Percent_7_Bucket_5: 0
Non-critical_ROB_Stalls_Percent_7_Bucket_5: 7601
Critical_ROB_Stalls_Percent_7_Bucket_6: 0
Non-critical_ROB_Stalls_Percent_7_Bucket_6: 17447
Critical_ROB_Stalls_Percent_8_Bucket_0: 610470
Non-critical_ROB_Stalls_Percent_8_Bucket_0: 1941337
Critical_ROB_Stalls_Percent_8_Bucket_1: 1123
Non-critical_ROB_Stalls_Percent_8_Bucket_1: 600061
Critical_ROB_Stalls_Percent_8_Bucket_2: 4473
Non-critical_ROB_Stalls_Percent_8_Bucket_2: 233000
Critical_ROB_Stalls_Percent_8_Bucket_3: 0
Non-critical_ROB_Stalls_Percent_8_Bucket_3: 46702
Critical_ROB_Stalls_Percent_8_Bucket_4: 0
Non-critical_ROB_Stalls_Percent_8_Bucket_4: 15137
Critical_ROB_Stalls_Percent_8_Bucket_5: 0
Non-critical_ROB_Stalls_Percent_8_Bucket_5: 7601
Critical_ROB_Stalls_Percent_8_Bucket_6: 0
Non-critical_ROB_Stalls_Percent_8_Bucket_6: 17447
Average ROB occupancy Load Stall Begin: 34.6278
Average ROB occupancy Load Stall End: 42.5534
Min ROB occupancy Load Stall Begin: 1
Max ROB occupancy Load Stall Begin: 352
Min ROB occupancy Load Stall End: 1
Max ROB occupancy Load Stall End: 352
Average ROB occupancy Critical Load Stall Begin: -nan
Average ROB occupancy Critical Load Stall End: -nan
Min ROB occupancy Critical Load Stall Begin: 400
Max ROB occupancy Critical Load Stall Begin: 0
Min ROB occupancy Critical Load Stall End: 400
Max ROB occupancy Critical Load Stall End: 0
 ROB Load Stall Begin Bucket Count 0: 2750790
 ROB Load Stall End Bucket Count 0: 2551807
 ROB Critical Load Stall Begin Bucket Count 0: 0
 ROB Critical Load Stall End Bucket Count 0: 0
 ROB Load Stall Begin Bucket Count 1: 480342
 ROB Load Stall End Bucket Count 1: 601184
 ROB Critical Load Stall Begin Bucket Count 1: 0
 ROB Critical Load Stall End Bucket Count 1: 0
 ROB Load Stall Begin Bucket Count 2: 178017
 ROB Load Stall End Bucket Count 2: 237473
 ROB Critical Load Stall Begin Bucket Count 2: 0
 ROB Critical Load Stall End Bucket Count 2: 0
 ROB Load Stall Begin Bucket Count 3: 32364
 ROB Load Stall End Bucket Count 3: 46702
 ROB Critical Load Stall Begin Bucket Count 3: 0
 ROB Critical Load Stall End Bucket Count 3: 0
 ROB Load Stall Begin Bucket Count 4: 12251
 ROB Load Stall End Bucket Count 4: 15137
 ROB Critical Load Stall Begin Bucket Count 4: 0
 ROB Critical Load Stall End Bucket Count 4: 0
 ROB Load Stall Begin Bucket Count 5: 6968
 ROB Load Stall End Bucket Count 5: 7601
 ROB Critical Load Stall Begin Bucket Count 5: 0
 ROB Critical Load Stall End Bucket Count 5: 0
 ROB Load Stall Begin Bucket Count 6: 16620
 ROB Load Stall End Bucket Count 6: 17447
 ROB Critical Load Stall Begin Bucket Count 6: 0
 ROB Critical Load Stall End Bucket Count 6: 0
PIST Tag Read Accesses: 0
PIST Read Accesses: 0
PIST Tag Write Accesses: 0
PIST Write Accesses: 0
Criticality detector called times: 0
Max global_stall_cycles_count: 0
Threshold Modified: 0 times, factor: 0
ITLB TOTAL     ACCESS:   10306495  HIT:    9790058  MISS:     516437  HIT %:    94.9892  MISS %:    5.01079   MPKI: 10.3287
ITLB LOAD TRANSLATION ACCESS:    8797524  HIT:    8720462  MISS:      77062  HIT %:     99.124  MISS %:   0.875951   MPKI: 1.54124
ITLB TRANSLATION FROM L1D PREFETCHER ACCESS:    1508971  HIT:    1069596  MISS:     439375  HIT %:    70.8825  MISS %:    29.1175   MPKI: 8.7875
ITLB PREFETCH  REQUESTED:          0  ISSUED:          0  USEFUL:     343367  USELESS:      96010
ITLB USEFUL LOAD PREFETCHES:     343367 PREFETCH ISSUED TO LOWER LEVEL:          0  ACCURACY: inf
ITLB TIMELY PREFETCHES:     343367 LATE PREFETCHES: 162 DROPPED PREFETCHES: 3198
ITLB PREFETCHES SAME FILL-ORIGIN LEVEL: 0 DIFFERENT FILL-ORIGIN LEVEL: 0
ITLB AVERAGE MISS LATENCY: 18479.8 cycles
ITLB RQ	ACCESS:   14176996	FORWARD:          0	MERGED:    3833014	TO_CACHE:   10343982

DTLB TOTAL     ACCESS:   10184935  HIT:    9801316  MISS:     383619  HIT %:    96.2335  MISS %:    3.76653   MPKI: 7.67238
DTLB LOAD TRANSLATION ACCESS:   10184935  HIT:    9801316  MISS:     383619  HIT %:    96.2335  MISS %:    3.76653   MPKI: 7.67238
DTLB PREFETCH  REQUESTED:          0  ISSUED:          0  USEFUL:          0  USELESS:          0
DTLB USEFUL LOAD PREFETCHES:          0 PREFETCH ISSUED TO LOWER LEVEL:          0  ACCURACY: -nan
DTLB TIMELY PREFETCHES:          0 LATE PREFETCHES: 0 DROPPED PREFETCHES: 0
DTLB PREFETCHES SAME FILL-ORIGIN LEVEL: 0 DIFFERENT FILL-ORIGIN LEVEL: 0
DTLB AVERAGE MISS LATENCY: 9.38542 cycles
DTLB RQ	ACCESS:   13091500	FORWARD:          0	MERGED:    2884706	TO_CACHE:   10206794

STLB TOTAL     ACCESS:    1755783  HIT:    1753753  MISS:       2030  HIT %:    99.8844  MISS %:   0.115618   MPKI: 0.0406
STLB LOAD TRANSLATION ACCESS:     460519  HIT:     458638  MISS:       1881  HIT %:    99.5915  MISS %:   0.408452   MPKI: 0.03762
STLB TRANSLATION FROM L1D PREFETCHER ACCESS:    1295264  HIT:    1295115  MISS:        149  HIT %:    99.9885  MISS %:  0.0115034   MPKI: 0.00298
STLB PREFETCH  REQUESTED:          0  ISSUED:          0  USEFUL:        133  USELESS:         16
STLB USEFUL LOAD PREFETCHES:        133 PREFETCH ISSUED TO LOWER LEVEL:          0  ACCURACY: inf
STLB TIMELY PREFETCHES:        133 LATE PREFETCHES: 0 DROPPED PREFETCHES: 3198
STLB PREFETCHES SAME FILL-ORIGIN LEVEL: 0 DIFFERENT FILL-ORIGIN LEVEL: 0
STLB AVERAGE MISS LATENCY: 76.8433 cycles
STLB RQ	ACCESS:    2507283	FORWARD:          0	MERGED:     748302	TO_CACHE:    1758981

STLB Hit, L1D data hit: 0
STLB Hit, L2C data hit: 0
STLB Hit, LLC data hit: 0
STLB Hit, LLC data miss: 0
STLB STLB hints to L2: 0
L1D TOTAL     ACCESS:   14242647  HIT:   13345120  MISS:     897527  HIT %:    93.6983  MISS %:    6.30169   MPKI: 17.9505
L1D LOAD      ACCESS:    7418918  HIT:    6836941  MISS:     581977  HIT %:    92.1555  MISS %:     7.8445   MPKI: 11.6395
L1D RFO       ACCESS:    5268790  HIT:    5038577  MISS:     230213  HIT %:    95.6306  MISS %:    4.36937   MPKI: 4.60426
L1D PREFETCH  ACCESS:    1554939  HIT:    1469602  MISS:      85337  HIT %:    94.5119  MISS %:    5.48813   MPKI: 1.70674
L1D PREFETCH  REQUESTED:    3208628  ISSUED:    3208134  USEFUL:      35560  USELESS:      49747
L1D USEFUL LOAD PREFETCHES:      35560 PREFETCH ISSUED TO LOWER LEVEL:     124081  ACCURACY: 28.6587
L1D TIMELY PREFETCHES:      35560 LATE PREFETCHES: 38683 DROPPED PREFETCHES: 0
L1D PREFETCHES SAME FILL-ORIGIN LEVEL: 124081 DIFFERENT FILL-ORIGIN LEVEL: 0
L1D AVERAGE MISS LATENCY: 2.55395e+06 cycles
L1D RQ	ACCESS:   10330987	FORWARD:          0	MERGED:    2773872	TO_CACHE:    7449212
L1D WQ	ACCESS:    5697707	FORWARD:     107979	MERGED:      55419	TO_CACHE:    5642288
L1D PQ	ACCESS:    1604105	FORWARD:          0	MERGED:          0	TO_CACHE:    1604029

L1D UNIQUE REGIONS ACCESSED: 0
L1D REGIONS CONFLICTS: 0
L1D Cross Page Prefetch Requests: 0
L1D Same Page Prefetch Requests: 1611641
L1D ROI Sum of L1D PQ occupancy: 20731264
L1D PREFETCHES PUSHED FROM L2C: 0
L1I TOTAL     ACCESS:   14054681  HIT:   10958139  MISS:    3096542  HIT %:    77.9679  MISS %:    22.0321   MPKI: 61.9308
L1I LOAD      ACCESS:    9936962  HIT:    9709440  MISS:     227522  HIT %:    97.7103  MISS %:    2.28965   MPKI: 4.55044
L1I PREFETCH  ACCESS:    4117719  HIT:    1248699  MISS:    2869020  HIT %:     30.325  MISS %:     69.675   MPKI: 57.3804
L1I PREFETCH  REQUESTED:    4326767  ISSUED:    4317928  USEFUL:    1951334  USELESS:     917625
L1I USEFUL LOAD PREFETCHES:    1951334 PREFETCH ISSUED TO LOWER LEVEL:    2895435  ACCURACY: 67.3935
L1I TIMELY PREFETCHES:    1951334 LATE PREFETCHES: 26415 DROPPED PREFETCHES: 7775
L1I PREFETCHES SAME FILL-ORIGIN LEVEL: 2895435 DIFFERENT FILL-ORIGIN LEVEL: 0
L1I AVERAGE MISS LATENCY: 511022 cycles
L1I RQ	ACCESS:   13363535	FORWARD:          0	MERGED:    3407172	TO_CACHE:    9956363
L1I PQ	ACCESS:    4317928	FORWARD:          0	MERGED:      97295	TO_CACHE:    4220633

BTB TOTAL     ACCESS:    6534034  HIT:    5095597  MISS:    1438437  HIT %:    77.9855  MISS %:    22.0145   MPKI: 28.7687
BTB BRANCH_DIRECT_JUMP	ACCESS:     487044  HIT:     364834  MISS:     122210
BTB BRANCH_INDIRECT	ACCESS:     169158  HIT:     142414  MISS:      26744
BTB BRANCH_CONDITIONAL	ACCESS:    4098719  HIT:    3717570  MISS:     381149
BTB BRANCH_DIRECT_CALL	ACCESS:     755585  HIT:     471450  MISS:     284135
BTB BRANCH_INDIRECT_CALL	ACCESS:     133962  HIT:      76124  MISS:      57838
BTB BRANCH_RETURN	ACCESS:     889566  HIT:     323205  MISS:     566361
BTB BRANCH_OTHER ACCESS:          0  HIT:          0  MISS:          0

L2C TOTAL     ACCESS:    4398355  HIT:    3926255  MISS:     472100  HIT %:    89.2664  MISS %:    10.7336   MPKI: 9.442
L2C LOAD      ACCESS:     744356  HIT:     619933  MISS:     124423  HIT %:    83.2845  MISS %:    16.7155   MPKI: 2.48846
L2C DATA LOAD MPKI: 1.90552
L2C INSTRUCTION LOAD MPKI: 0.58294
L2C RFO       ACCESS:     230142  HIT:     178212  MISS:      51930  HIT %:    77.4357  MISS %:    22.5643   MPKI: 1.0386
L2C PREFETCH  ACCESS:    3019515  HIT:    2743233  MISS:     276282  HIT %:    90.8501  MISS %:    9.14988   MPKI: 5.52564
L2C DATA PREFETCH MPKI: 0.87982
L2C INSTRUCTION PREFETCH MPKI: 4.64582
L2C WRITEBACK ACCESS:     396867  HIT:     379223  MISS:      17644  HIT %:    95.5542  MISS %:    4.44582   MPKI: 0.35288
L2C LOAD TRANSLATION ACCESS:       2098  HIT:        536  MISS:       1562  HIT %:    25.5481  MISS %:    74.4519   MPKI: 0.03124
L2C TRANSLATION FROM L1D PREFETCHER ACCESS:       5377  HIT:       5118  MISS:        259  HIT %:    95.1832  MISS %:    4.81681   MPKI: 0.00518
L2C PREFETCH  REQUESTED:          0  ISSUED:          0  USEFUL:       8314  USELESS:     266627
L2C USEFUL LOAD PREFETCHES:       8314 PREFETCH ISSUED TO LOWER LEVEL:     276282  ACCURACY: 3.00924
L2C TIMELY PREFETCHES:       8314 LATE PREFETCHES: 0 DROPPED PREFETCHES: 0
L2C PREFETCHES SAME FILL-ORIGIN LEVEL: 0 DIFFERENT FILL-ORIGIN LEVEL: 0
L2C AVERAGE MISS LATENCY: 39.5614 cycles
L2C RQ	ACCESS:     982028	FORWARD:          0	MERGED:          0	TO_CACHE:     981973
L2C WQ	ACCESS:     396867	FORWARD:         56	MERGED:          0	TO_CACHE:     396867
L2C PQ	ACCESS:    3019516	FORWARD:          0	MERGED:          0	TO_CACHE:    3019515

L2C Instructions Evicting Data 108860
L2C Translations Evicting Data 1147
L2C Data Evicting Data 93146
L2C Instructions Evicting Instructions 151880
L2C Translations Evicting Instructions 651
L2C Data Evicting Instructions 96933
L2C Instructions Evicting Translations 698
L2C Translations Evicting Translations 23
L2C Data Evicting Translations 1118
L2C Dense regions hint from L2: 0
PSCL5 TOTAL     ACCESS:       5228  HIT:       5228  MISS:          0  HIT %:        100  MISS %:          0   MPKI: 0
PSCL5 LOAD TRANSLATION ACCESS:       1881  HIT:       1881  MISS:          0  HIT %:        100  MISS %:          0   MPKI: 0
PSCL5 TRANSLATION FROM L1D PREFETCHER ACCESS:       3347  HIT:       3347  MISS:          0  HIT %:        100  MISS %:          0   MPKI: 0
PSCL5 PREFETCH  REQUESTED:          0  ISSUED:          0  USEFUL:          0  USELESS:          0
PSCL5 USEFUL LOAD PREFETCHES:          0 PREFETCH ISSUED TO LOWER LEVEL:          0  ACCURACY: -nan
PSCL5 TIMELY PREFETCHES:          0 LATE PREFETCHES: 0 DROPPED PREFETCHES: 0
PSCL5 PREFETCHES SAME FILL-ORIGIN LEVEL: 0 DIFFERENT FILL-ORIGIN LEVEL: 0

PSCL4 TOTAL     ACCESS:       4898  HIT:       4886  MISS:         12  HIT %:     99.755  MISS %:   0.244998   MPKI: 0.00024
PSCL4 LOAD TRANSLATION ACCESS:       1662  HIT:       1650  MISS:         12  HIT %:     99.278  MISS %:   0.722022   MPKI: 0.00024
PSCL4 TRANSLATION FROM L1D PREFETCHER ACCESS:       3236  HIT:       3236  MISS:          0  HIT %:        100  MISS %:          0   MPKI: 0
PSCL4 PREFETCH  REQUESTED:          0  ISSUED:          0  USEFUL:          0  USELESS:          0
PSCL4 USEFUL LOAD PREFETCHES:          0 PREFETCH ISSUED TO LOWER LEVEL:          0  ACCURACY: -nan
PSCL4 TIMELY PREFETCHES:          0 LATE PREFETCHES: 0 DROPPED PREFETCHES: 0
PSCL4 PREFETCHES SAME FILL-ORIGIN LEVEL: 0 DIFFERENT FILL-ORIGIN LEVEL: 0

PSCL3 TOTAL     ACCESS:       5073  HIT:       5061  MISS:         12  HIT %:    99.7635  MISS %:   0.236546   MPKI: 0.00024
PSCL3 LOAD TRANSLATION ACCESS:       1837  HIT:       1825  MISS:         12  HIT %:    99.3468  MISS %:   0.653239   MPKI: 0.00024
PSCL3 TRANSLATION FROM L1D PREFETCHER ACCESS:       3236  HIT:       3236  MISS:          0  HIT %:        100  MISS %:          0   MPKI: 0
PSCL3 PREFETCH  REQUESTED:          0  ISSUED:          0  USEFUL:          0  USELESS:          0
PSCL3 USEFUL LOAD PREFETCHES:          0 PREFETCH ISSUED TO LOWER LEVEL:          0  ACCURACY: -nan
PSCL3 TIMELY PREFETCHES:          0 LATE PREFETCHES: 0 DROPPED PREFETCHES: 0
PSCL3 PREFETCHES SAME FILL-ORIGIN LEVEL: 0 DIFFERENT FILL-ORIGIN LEVEL: 0

PSCL2 TOTAL     ACCESS:       3338  HIT:       3113  MISS:        225  HIT %:    93.2594  MISS %:    6.74056   MPKI: 0.0045
PSCL2 LOAD TRANSLATION ACCESS:       1909  HIT:       1684  MISS:        225  HIT %:    88.2137  MISS %:    11.7863   MPKI: 0.0045
PSCL2 TRANSLATION FROM L1D PREFETCHER ACCESS:       1429  HIT:       1429  MISS:          0  HIT %:        100  MISS %:          0   MPKI: 0
PSCL2 PREFETCH  REQUESTED:          0  ISSUED:          0  USEFUL:          0  USELESS:          0
PSCL2 USEFUL LOAD PREFETCHES:          0 PREFETCH ISSUED TO LOWER LEVEL:          0  ACCURACY: -nan
PSCL2 TIMELY PREFETCHES:          0 LATE PREFETCHES: 0 DROPPED PREFETCHES: 0
PSCL2 PREFETCHES SAME FILL-ORIGIN LEVEL: 0 DIFFERENT FILL-ORIGIN LEVEL: 0

LLC TOTAL     ACCESS:     530571  HIT:     498868  MISS:      31703  HIT %:    94.0247  MISS %:    5.97526   MPKI: 0.63406
LLC LOAD      ACCESS:     124423  HIT:     117357  MISS:       7066  HIT %:     94.321  MISS %:    5.67901   MPKI: 0.14132
LLC RFO       ACCESS:      51929  HIT:      37642  MISS:      14287  HIT %:    72.4874  MISS %:    27.5126   MPKI: 0.28574
LLC PREFETCH  ACCESS:     276282  HIT:     266384  MISS:       9898  HIT %:    96.4174  MISS %:    3.58257   MPKI: 0.19796
LLC WRITEBACK ACCESS:      76116  HIT:      75802  MISS:        314  HIT %:    99.5875  MISS %:   0.412528   MPKI: 0.00628
LLC LOAD TRANSLATION ACCESS:       1562  HIT:       1437  MISS:        125  HIT %:    91.9974  MISS %:    8.00256   MPKI: 0.0025
LLC TRANSLATION FROM L1D PREFETCHER ACCESS:        259  HIT:        246  MISS:         13  HIT %:    94.9807  MISS %:    5.01931   MPKI: 0.00026
LLC PREFETCH  REQUESTED:          0  ISSUED:          0  USEFUL:        510  USELESS:       5634
LLC USEFUL LOAD PREFETCHES:        510 PREFETCH ISSUED TO LOWER LEVEL:       9898  ACCURACY: 5.15256
LLC TIMELY PREFETCHES:        510 LATE PREFETCHES: 0 DROPPED PREFETCHES: 0
LLC PREFETCHES SAME FILL-ORIGIN LEVEL: 0 DIFFERENT FILL-ORIGIN LEVEL: 0
LLC AVERAGE MISS LATENCY: 157.963 cycles
LLC RQ	ACCESS:     178174	FORWARD:          0	MERGED:          0	TO_CACHE:     178173
LLC WQ	ACCESS:      76116	FORWARD:          1	MERGED:          0	TO_CACHE:      76116
LLC PQ	ACCESS:     276282	FORWARD:          0	MERGED:          0	TO_CACHE:     276282

LLC Dense regions hint to LLC: 0

RAW hits: 801323
Loads Generated: 11132312
Loads sent to L1D: 10330987
Stores Generated: 5697707
Stores sent to L1D: 5697707
Major fault: 0 Minor fault: 2472
Allocated PAGES: 2472
I-Shadow cache 408 bytes
Touched + WorthPF tables 6144 bytes 
MMA filter 174 bytes 
FNL filter 272 bytes 
TOTAL PREFETCHER STORAGE SIZE: 25174 bytes
CPU 0 L1I next line prefetcher final stats

stream: 
stream:times selected: 1193379
stream:pref_filled: 44257
stream:pref_useful: 7350
stream:pref_late: 32612
stream:misses: 4720
stream:misses_by_poll: 0

CS: 
CS:times selected: 725879
CS:pref_filled: 34088
CS:pref_useful: 25735
CS:pref_late: 2894
CS:misses: 5055
CS:misses_by_poll: 40

CPLX: 
CPLX:times selected: 466550
CPLX:pref_filled: 10528
CPLX:pref_useful: 3707
CPLX:pref_late: 2704
CPLX:misses: 57462
CPLX:misses_by_poll: 40

NL_L1: 
NL:times selected: 4222
NL:pref_filled: 184
NL:pref_useful: 33
NL:pref_late: 6
NL:misses: 237
NL:misses_by_poll: 0

total selections: 2390030
total_filled: 85337
total_useful: 35560
total_late: 39116
total_polluted: 80
total_misses_after_warmup: 117956
conflicts: 143514
Degree Incremented Times: 1989
Degree Decremented Times: 9480

L1 IP Table Write Accesses: 1716090
L1 IP Table Read Accesses: 1572576
L1 RST Write Accesses: 1190014
L1 RST Read Accesses: 2380028
L1 CSPT Write Accesses: 1190014
L1 CSPT Read Accesses: 1653703
L1 RR Filter Tag Write Accesses: 1604599
L1 RR Filter Tag Read Accesses: 102190239
L1 IP Table Tag Write Accesses: 1945574
L1 IP Table Tag Read Accesses: 1945574
L1 RST Tag Write Accesses: 0
L1 RST Tag Read Accesses: 10411901
L1 RR Filter Write Accesses: 0
L1 RR Filter Read Accesses: 3394404
test: 83562

DRAM Statistics
 CHANNEL 0
 RQ ROW_BUFFER_HIT:      10424  ROW_BUFFER_MISS:      20960
 DBUS_CONGESTED:          6
 WQ ROW_BUFFER_HIT:       1592  ROW_BUFFER_MISS:      14094  FULL:          0

 AVG_CONGESTED_CYCLE: 5
 All warmup complete: 2
Channel 0 Bank busy for read cycles: 0
Channel 0 Bank busy for write cycles: 0
Channel 0
Rank 0
0banks busy for read cycles: 74456410
0banks busy for write cycles: 4041
1banks busy for read cycles: 1253734
1banks busy for write cycles: 548995
2banks busy for read cycles: 291677
2banks busy for write cycles: 156980
3banks busy for read cycles: 140096
3banks busy for write cycles: 98878
4banks busy for read cycles: 67275
4banks busy for write cycles: 66270
5banks busy for read cycles: 31332
5banks busy for write cycles: 58761
6banks busy for read cycles: 29436
6banks busy for write cycles: 53065
7banks busy for read cycles: 33298
7banks busy for write cycles: 51042
8banks busy for read cycles: 73711
8banks busy for write cycles: 83112

CPU 0 Branch Prediction Accuracy: 99.7225% MPKI: 0.50376 Average ROB Occupancy at Mispredict: 59.1809
Branch types
NOT_BRANCH: 40923872 81.8477%
BRANCH_DIRECT_JUMP: 487044 0.974088%
BRANCH_INDIRECT: 169158 0.338316%
BRANCH_CONDITIONAL: 6640823 13.2816%
BRANCH_DIRECT_CALL: 755585 1.51117%
BRANCH_INDIRECT_CALL: 133962 0.267924%
BRANCH_RETURN: 889566 1.77913%
BRANCH_OTHER: 0 0%

DRAM PAGES: 1048576
Allocated PAGES: 2472
