
*** ChampSim Multicore Out-of-Order Simulator ***

Warmup Instructions: 50000000
Simulation Instructions: 50000000
Number of CPUs: 1
LLC sets: 2048
LLC ways: 16
Off-chip DRAM Size: 4096 MB Channels: 1 Width: 64-bit Data Rate: 6400 MT/s
CPU 0 runs ../IPC-traces//server_037.champsimtrace.xz
.xz
BTB has LRU replacement policy
ITLB has LRU replacement policy
DTLB has LRU replacement policy
STLB has LRU replacement policy
CPU 0 L1I next line prefetcher
L1I has LRU replacement policy
IP Table Entries: 64
L1D has LRU replacement policy
Initialize SRRIP state for L2C
Initialize DRRIP state for LLC
Heartbeat CPU 0 instructions: 10000000 cycles: 2749893 heartbeat IPC: 3.63651 cumulative IPC: 3.63651 (Simulation time: 0 hr 2 min 46 sec) 
Heartbeat CPU 0 instructions: 20000001 cycles: 5496054 heartbeat IPC: 3.64145 cumulative IPC: 3.63897 (Simulation time: 0 hr 5 min 34 sec) 
Heartbeat CPU 0 instructions: 30000000 cycles: 8296602 heartbeat IPC: 3.57073 cumulative IPC: 3.61594 (Simulation time: 0 hr 8 min 22 sec) 
Heartbeat CPU 0 instructions: 40000003 cycles: 11042593 heartbeat IPC: 3.64167 cumulative IPC: 3.62234 (Simulation time: 0 hr 11 min 5 sec) 
Heartbeat CPU 0 instructions: 50000002 cycles: 13787844 heartbeat IPC: 3.64265 cumulative IPC: 3.62638 (Simulation time: 0 hr 13 min 42 sec) 

Warmup complete CPU 0 instructions: 50000002 cycles: 13787844 (Simulation time: 0 hr 13 min 42 sec) 

Heartbeat CPU 0 instructions: 60000000 cycles: 25325528 heartbeat IPC: 0.866725 cumulative IPC: 0.866725 (Simulation time: 0 hr 16 min 47 sec) 
Heartbeat CPU 0 instructions: 70000000 cycles: 36939317 heartbeat IPC: 0.861045 cumulative IPC: 0.863876 (Simulation time: 0 hr 19 min 54 sec) 
Heartbeat CPU 0 instructions: 80000001 cycles: 48419576 heartbeat IPC: 0.871061 cumulative IPC: 0.866258 (Simulation time: 0 hr 22 min 59 sec) 
Heartbeat CPU 0 instructions: 90000002 cycles: 59968589 heartbeat IPC: 0.865875 cumulative IPC: 0.866162 (Simulation time: 0 hr 26 min 1 sec) 
*** Reached end of trace for Core: 0 Repeating trace: ../IPC-traces//server_037.champsimtrace.xz
Heartbeat CPU 0 instructions: 100000003 cycles: 71491500 heartbeat IPC: 0.867836 cumulative IPC: 0.866496 (Simulation time: 0 hr 29 min 22 sec) 
Finished CPU 0 instructions: 50000001 cycles: 57703656 cumulative IPC: 0.866496 (Simulation time: 0 hr 29 min 22 sec) 

ChampSim completed all CPUs

Region of Interest Statistics

CPU 0 cumulative IPC: 0.866496 instructions: 50000001 cycles: 57703656

CPU 0 Average Load ROB stall cycles: 1.48475e+07
CPU 0 Fraction of times ROB stalled by Loads: 34.7828
CPU 0 Percentage of Load stall cycles in Total stall cycles: 2.27048e+08
Issued all: 25398266
Issued LT all: 19663856
rob_not_full_when_issued_lt_all: 19313192
Issued LT one: 14653783
rob_not_full_when_issued_lt_one: 14316582
HPCA_2009 critical_dynamic_instances_0: 265841
HPCA_2009 unique_critical_ips_0: 4168
multiple_destinations_0: 0
load_to_same_dest_0: 0
low_issue_rate_0: 15793886
total_issue_rate_checked_count_0: 17360110
 Total stall cycles: 45954559
 Total load stall cycles: 104339050689295
Unique Load IPs: 6747
CPU 0 NUM of IPS identified critical: 0
CPU 0 Num of Load IPs stalling ROB: 0
Threshold modification factor: 0
Trouble in retire width: -nan
MaC = Marked as critical.
lt_50_percent_before_Mac: 0
gt_90_percent_before_Mac: 0
gt_75_percent_before_Mac: 0
gt_50_percent_before_Mac: 0
stall_proportion_bin_same_before_after: 0
stall_proportion_bin_lower_before_after: 0
stall_proportion_bin_upper_before_after: 0
average_stall_proportion_before: -nan
average_stall_proportion_after: -nan
Critical IP stalls, total frequency: 0
Non-critical IP stalls, total frequency: 0
Total Freq all stalling IPs: 0
Critical_IP_Detector_Accuracy_70: 0.000239923
Critical_IP_Detector_Accuracy_80: 0.000239923
Critical_IP_Detector_Accuracy_90: 0.000239923
Critical_IP_Detector_Coverage_70: 1
Critical_IP_Detector_Coverage_80: 1
Critical_IP_Detector_Coverage_90: 1
stat_90_percent_critical_ip_stalls_freq: 25332
stat_90_percent_non_critical_ip_stalls_freq: 18446744073709526284
AVERAGE_ROB_Occupancy_90_Percent_Critical_IP_Stalls: 94.1485
AVERAGE_ROB_Occupancy_90_Percent_Non_Critical_IP_Stalls: 8.58828e-12
Critical_IP_ROB_Stalls_Bucket_0: 0
Non-critical_IP_ROB_Stalls_Bucket_0: 1105072
Critical_IP_ROB_Stalls_Bucket_1: 0
Non-critical_IP_ROB_Stalls_Bucket_1: 892471
Critical_IP_ROB_Stalls_Bucket_2: 0
Non-critical_IP_ROB_Stalls_Bucket_2: 311071
Critical_IP_ROB_Stalls_Bucket_3: 0
Non-critical_IP_ROB_Stalls_Bucket_3: 91947
Critical_IP_ROB_Stalls_Bucket_4: 0
Non-critical_IP_ROB_Stalls_Bucket_4: 21135
Critical_IP_ROB_Stalls_Bucket_5: 0
Non-critical_IP_ROB_Stalls_Bucket_5: 13880
Critical_IP_ROB_Stalls_Bucket_6: 0
Non-critical_IP_ROB_Stalls_Bucket_6: 8739
0 => IPs accounting for >50 percent of stalls, 1 => 55, 2 => 60, 3 => 65 and so on till 90.
percent50: inf num IPs:  1
percent55: inf num IPs: 1
percent60: inf num IPs: 1
percent65: inf num IPs: 1
percent70: inf num IPs: 1
percent75: inf num IPs: 1
percent80: inf num IPs: 1
percent85: inf num IPs: 1
percent90: inf num IPs: 1
Critical_ROB_Stalls_Percent_0_Bucket_0: 2967
Non-critical_ROB_Stalls_Percent_0_Bucket_0: 1102105
Critical_ROB_Stalls_Percent_0_Bucket_1: 10777
Non-critical_ROB_Stalls_Percent_0_Bucket_1: 881694
Critical_ROB_Stalls_Percent_0_Bucket_2: 11080
Non-critical_ROB_Stalls_Percent_0_Bucket_2: 299991
Critical_ROB_Stalls_Percent_0_Bucket_3: 505
Non-critical_ROB_Stalls_Percent_0_Bucket_3: 91442
Critical_ROB_Stalls_Percent_0_Bucket_4: 1
Non-critical_ROB_Stalls_Percent_0_Bucket_4: 21134
Critical_ROB_Stalls_Percent_0_Bucket_5: 0
Non-critical_ROB_Stalls_Percent_0_Bucket_5: 13880
Critical_ROB_Stalls_Percent_0_Bucket_6: 2
Non-critical_ROB_Stalls_Percent_0_Bucket_6: 8737
Critical_ROB_Stalls_Percent_1_Bucket_0: 2967
Non-critical_ROB_Stalls_Percent_1_Bucket_0: 1102105
Critical_ROB_Stalls_Percent_1_Bucket_1: 10777
Non-critical_ROB_Stalls_Percent_1_Bucket_1: 881694
Critical_ROB_Stalls_Percent_1_Bucket_2: 11080
Non-critical_ROB_Stalls_Percent_1_Bucket_2: 299991
Critical_ROB_Stalls_Percent_1_Bucket_3: 505
Non-critical_ROB_Stalls_Percent_1_Bucket_3: 91442
Critical_ROB_Stalls_Percent_1_Bucket_4: 1
Non-critical_ROB_Stalls_Percent_1_Bucket_4: 21134
Critical_ROB_Stalls_Percent_1_Bucket_5: 0
Non-critical_ROB_Stalls_Percent_1_Bucket_5: 13880
Critical_ROB_Stalls_Percent_1_Bucket_6: 2
Non-critical_ROB_Stalls_Percent_1_Bucket_6: 8737
Critical_ROB_Stalls_Percent_2_Bucket_0: 2967
Non-critical_ROB_Stalls_Percent_2_Bucket_0: 1102105
Critical_ROB_Stalls_Percent_2_Bucket_1: 10777
Non-critical_ROB_Stalls_Percent_2_Bucket_1: 881694
Critical_ROB_Stalls_Percent_2_Bucket_2: 11080
Non-critical_ROB_Stalls_Percent_2_Bucket_2: 299991
Critical_ROB_Stalls_Percent_2_Bucket_3: 505
Non-critical_ROB_Stalls_Percent_2_Bucket_3: 91442
Critical_ROB_Stalls_Percent_2_Bucket_4: 1
Non-critical_ROB_Stalls_Percent_2_Bucket_4: 21134
Critical_ROB_Stalls_Percent_2_Bucket_5: 0
Non-critical_ROB_Stalls_Percent_2_Bucket_5: 13880
Critical_ROB_Stalls_Percent_2_Bucket_6: 2
Non-critical_ROB_Stalls_Percent_2_Bucket_6: 8737
Critical_ROB_Stalls_Percent_3_Bucket_0: 2967
Non-critical_ROB_Stalls_Percent_3_Bucket_0: 1102105
Critical_ROB_Stalls_Percent_3_Bucket_1: 10777
Non-critical_ROB_Stalls_Percent_3_Bucket_1: 881694
Critical_ROB_Stalls_Percent_3_Bucket_2: 11080
Non-critical_ROB_Stalls_Percent_3_Bucket_2: 299991
Critical_ROB_Stalls_Percent_3_Bucket_3: 505
Non-critical_ROB_Stalls_Percent_3_Bucket_3: 91442
Critical_ROB_Stalls_Percent_3_Bucket_4: 1
Non-critical_ROB_Stalls_Percent_3_Bucket_4: 21134
Critical_ROB_Stalls_Percent_3_Bucket_5: 0
Non-critical_ROB_Stalls_Percent_3_Bucket_5: 13880
Critical_ROB_Stalls_Percent_3_Bucket_6: 2
Non-critical_ROB_Stalls_Percent_3_Bucket_6: 8737
Critical_ROB_Stalls_Percent_4_Bucket_0: 2967
Non-critical_ROB_Stalls_Percent_4_Bucket_0: 1102105
Critical_ROB_Stalls_Percent_4_Bucket_1: 10777
Non-critical_ROB_Stalls_Percent_4_Bucket_1: 881694
Critical_ROB_Stalls_Percent_4_Bucket_2: 11080
Non-critical_ROB_Stalls_Percent_4_Bucket_2: 299991
Critical_ROB_Stalls_Percent_4_Bucket_3: 505
Non-critical_ROB_Stalls_Percent_4_Bucket_3: 91442
Critical_ROB_Stalls_Percent_4_Bucket_4: 1
Non-critical_ROB_Stalls_Percent_4_Bucket_4: 21134
Critical_ROB_Stalls_Percent_4_Bucket_5: 0
Non-critical_ROB_Stalls_Percent_4_Bucket_5: 13880
Critical_ROB_Stalls_Percent_4_Bucket_6: 2
Non-critical_ROB_Stalls_Percent_4_Bucket_6: 8737
Critical_ROB_Stalls_Percent_5_Bucket_0: 2967
Non-critical_ROB_Stalls_Percent_5_Bucket_0: 1102105
Critical_ROB_Stalls_Percent_5_Bucket_1: 10777
Non-critical_ROB_Stalls_Percent_5_Bucket_1: 881694
Critical_ROB_Stalls_Percent_5_Bucket_2: 11080
Non-critical_ROB_Stalls_Percent_5_Bucket_2: 299991
Critical_ROB_Stalls_Percent_5_Bucket_3: 505
Non-critical_ROB_Stalls_Percent_5_Bucket_3: 91442
Critical_ROB_Stalls_Percent_5_Bucket_4: 1
Non-critical_ROB_Stalls_Percent_5_Bucket_4: 21134
Critical_ROB_Stalls_Percent_5_Bucket_5: 0
Non-critical_ROB_Stalls_Percent_5_Bucket_5: 13880
Critical_ROB_Stalls_Percent_5_Bucket_6: 2
Non-critical_ROB_Stalls_Percent_5_Bucket_6: 8737
Critical_ROB_Stalls_Percent_6_Bucket_0: 2967
Non-critical_ROB_Stalls_Percent_6_Bucket_0: 1102105
Critical_ROB_Stalls_Percent_6_Bucket_1: 10777
Non-critical_ROB_Stalls_Percent_6_Bucket_1: 881694
Critical_ROB_Stalls_Percent_6_Bucket_2: 11080
Non-critical_ROB_Stalls_Percent_6_Bucket_2: 299991
Critical_ROB_Stalls_Percent_6_Bucket_3: 505
Non-critical_ROB_Stalls_Percent_6_Bucket_3: 91442
Critical_ROB_Stalls_Percent_6_Bucket_4: 1
Non-critical_ROB_Stalls_Percent_6_Bucket_4: 21134
Critical_ROB_Stalls_Percent_6_Bucket_5: 0
Non-critical_ROB_Stalls_Percent_6_Bucket_5: 13880
Critical_ROB_Stalls_Percent_6_Bucket_6: 2
Non-critical_ROB_Stalls_Percent_6_Bucket_6: 8737
Critical_ROB_Stalls_Percent_7_Bucket_0: 2967
Non-critical_ROB_Stalls_Percent_7_Bucket_0: 1102105
Critical_ROB_Stalls_Percent_7_Bucket_1: 10777
Non-critical_ROB_Stalls_Percent_7_Bucket_1: 881694
Critical_ROB_Stalls_Percent_7_Bucket_2: 11080
Non-critical_ROB_Stalls_Percent_7_Bucket_2: 299991
Critical_ROB_Stalls_Percent_7_Bucket_3: 505
Non-critical_ROB_Stalls_Percent_7_Bucket_3: 91442
Critical_ROB_Stalls_Percent_7_Bucket_4: 1
Non-critical_ROB_Stalls_Percent_7_Bucket_4: 21134
Critical_ROB_Stalls_Percent_7_Bucket_5: 0
Non-critical_ROB_Stalls_Percent_7_Bucket_5: 13880
Critical_ROB_Stalls_Percent_7_Bucket_6: 2
Non-critical_ROB_Stalls_Percent_7_Bucket_6: 8737
Critical_ROB_Stalls_Percent_8_Bucket_0: 2967
Non-critical_ROB_Stalls_Percent_8_Bucket_0: 1102105
Critical_ROB_Stalls_Percent_8_Bucket_1: 10777
Non-critical_ROB_Stalls_Percent_8_Bucket_1: 881694
Critical_ROB_Stalls_Percent_8_Bucket_2: 11080
Non-critical_ROB_Stalls_Percent_8_Bucket_2: 299991
Critical_ROB_Stalls_Percent_8_Bucket_3: 505
Non-critical_ROB_Stalls_Percent_8_Bucket_3: 91442
Critical_ROB_Stalls_Percent_8_Bucket_4: 1
Non-critical_ROB_Stalls_Percent_8_Bucket_4: 21134
Critical_ROB_Stalls_Percent_8_Bucket_5: 0
Non-critical_ROB_Stalls_Percent_8_Bucket_5: 13880
Critical_ROB_Stalls_Percent_8_Bucket_6: 2
Non-critical_ROB_Stalls_Percent_8_Bucket_6: 8737
Average ROB occupancy Load Stall Begin: 54.3401
Average ROB occupancy Load Stall End: 65.7897
Min ROB occupancy Load Stall Begin: 1
Max ROB occupancy Load Stall Begin: 352
Min ROB occupancy Load Stall End: 1
Max ROB occupancy Load Stall End: 352
Average ROB occupancy Critical Load Stall Begin: -nan
Average ROB occupancy Critical Load Stall End: -nan
Min ROB occupancy Critical Load Stall Begin: 400
Max ROB occupancy Critical Load Stall Begin: 0
Min ROB occupancy Critical Load Stall End: 400
Max ROB occupancy Critical Load Stall End: 0
 ROB Load Stall Begin Bucket Count 0: 1437759
 ROB Load Stall End Bucket Count 0: 1105072
 ROB Critical Load Stall Begin Bucket Count 0: 0
 ROB Critical Load Stall End Bucket Count 0: 0
 ROB Load Stall Begin Bucket Count 1: 694047
 ROB Load Stall End Bucket Count 1: 892471
 ROB Critical Load Stall Begin Bucket Count 1: 0
 ROB Critical Load Stall End Bucket Count 1: 0
 ROB Load Stall Begin Bucket Count 2: 222419
 ROB Load Stall End Bucket Count 2: 311071
 ROB Critical Load Stall Begin Bucket Count 2: 0
 ROB Critical Load Stall End Bucket Count 2: 0
 ROB Load Stall Begin Bucket Count 3: 59348
 ROB Load Stall End Bucket Count 3: 91947
 ROB Critical Load Stall Begin Bucket Count 3: 0
 ROB Critical Load Stall End Bucket Count 3: 0
 ROB Load Stall Begin Bucket Count 4: 10595
 ROB Load Stall End Bucket Count 4: 21135
 ROB Critical Load Stall Begin Bucket Count 4: 0
 ROB Critical Load Stall End Bucket Count 4: 0
 ROB Load Stall Begin Bucket Count 5: 13509
 ROB Load Stall End Bucket Count 5: 13880
 ROB Critical Load Stall Begin Bucket Count 5: 0
 ROB Critical Load Stall End Bucket Count 5: 0
 ROB Load Stall Begin Bucket Count 6: 6638
 ROB Load Stall End Bucket Count 6: 8739
 ROB Critical Load Stall Begin Bucket Count 6: 0
 ROB Critical Load Stall End Bucket Count 6: 0
PIST Tag Read Accesses: 0
PIST Read Accesses: 0
PIST Tag Write Accesses: 0
PIST Write Accesses: 0
Criticality detector called times: 0
Max global_stall_cycles_count: 0
Threshold Modified: 0 times, factor: 0
ITLB TOTAL     ACCESS:   10651993  HIT:    9920522  MISS:     731471  HIT %:     93.133  MISS %:    6.86699   MPKI: 14.6294
ITLB LOAD TRANSLATION ACCESS:    8012525  HIT:    7989192  MISS:      23333  HIT %:    99.7088  MISS %:   0.291207   MPKI: 0.46666
ITLB TRANSLATION FROM L1D PREFETCHER ACCESS:    2639468  HIT:    1931330  MISS:     708138  HIT %:    73.1712  MISS %:    26.8288   MPKI: 14.1628
ITLB PREFETCH  REQUESTED:          0  ISSUED:          0  USEFUL:     664105  USELESS:      44039
ITLB USEFUL LOAD PREFETCHES:     664105 PREFETCH ISSUED TO LOWER LEVEL:          0  ACCURACY: inf
ITLB TIMELY PREFETCHES:     664105 LATE PREFETCHES: 117 DROPPED PREFETCHES: 68
ITLB PREFETCHES SAME FILL-ORIGIN LEVEL: 0 DIFFERENT FILL-ORIGIN LEVEL: 0
ITLB AVERAGE MISS LATENCY: 6645.65 cycles
ITLB RQ	ACCESS:   16394086	FORWARD:          0	MERGED:    5669820	TO_CACHE:   10724266

DTLB TOTAL     ACCESS:    9396165  HIT:    8871097  MISS:     525068  HIT %:    94.4119  MISS %:    5.58811   MPKI: 10.5014
DTLB LOAD TRANSLATION ACCESS:    9396165  HIT:    8871097  MISS:     525068  HIT %:    94.4119  MISS %:    5.58811   MPKI: 10.5014
DTLB PREFETCH  REQUESTED:          0  ISSUED:          0  USEFUL:          0  USELESS:          0
DTLB USEFUL LOAD PREFETCHES:          0 PREFETCH ISSUED TO LOWER LEVEL:          0  ACCURACY: -nan
DTLB TIMELY PREFETCHES:          0 LATE PREFETCHES: 0 DROPPED PREFETCHES: 0
DTLB PREFETCHES SAME FILL-ORIGIN LEVEL: 0 DIFFERENT FILL-ORIGIN LEVEL: 0
DTLB AVERAGE MISS LATENCY: 9.91597 cycles
DTLB RQ	ACCESS:   13426577	FORWARD:          0	MERGED:    3987706	TO_CACHE:    9438871

STLB TOTAL     ACCESS:    1258701  HIT:    1252604  MISS:       6097  HIT %:    99.5156  MISS %:   0.484388   MPKI: 0.12194
STLB LOAD TRANSLATION ACCESS:     548285  HIT:     542284  MISS:       6001  HIT %:    98.9055  MISS %:     1.0945   MPKI: 0.12002
STLB TRANSLATION FROM L1D PREFETCHER ACCESS:     710416  HIT:     710320  MISS:         96  HIT %:    99.9865  MISS %:  0.0135132   MPKI: 0.00192
STLB PREFETCH  REQUESTED:          0  ISSUED:          0  USEFUL:         69  USELESS:         25
STLB USEFUL LOAD PREFETCHES:         69 PREFETCH ISSUED TO LOWER LEVEL:          0  ACCURACY: inf
STLB TIMELY PREFETCHES:         69 LATE PREFETCHES: 0 DROPPED PREFETCHES: 69
STLB PREFETCHES SAME FILL-ORIGIN LEVEL: 0 DIFFERENT FILL-ORIGIN LEVEL: 0
STLB AVERAGE MISS LATENCY: 79.6446 cycles
STLB RQ	ACCESS:    1259331	FORWARD:          0	MERGED:        561	TO_CACHE:    1258770

STLB Hit, L1D data hit: 0
STLB Hit, L2C data hit: 0
STLB Hit, LLC data hit: 0
STLB Hit, LLC data miss: 0
STLB STLB hints to L2: 0
L1D TOTAL     ACCESS:   13330256  HIT:   12890691  MISS:     439565  HIT %:    96.7025  MISS %:     3.2975   MPKI: 8.7913
L1D LOAD      ACCESS:    7087113  HIT:    6710415  MISS:     376698  HIT %:    94.6847  MISS %:    5.31525   MPKI: 7.53396
L1D RFO       ACCESS:    6240451  HIT:    6178998  MISS:      61453  HIT %:    99.0152  MISS %:   0.984753   MPKI: 1.22906
L1D PREFETCH  ACCESS:       2692  HIT:       1278  MISS:       1414  HIT %:     47.474  MISS %:     52.526   MPKI: 0.02828
L1D PREFETCH  REQUESTED:       5450  ISSUED:       5450  USEFUL:        417  USELESS:        996
L1D USEFUL LOAD PREFETCHES:        417 PREFETCH ISSUED TO LOWER LEVEL:       1421  ACCURACY: 29.3455
L1D TIMELY PREFETCHES:        417 LATE PREFETCHES: 6 DROPPED PREFETCHES: 0
L1D PREFETCHES SAME FILL-ORIGIN LEVEL: 1421 DIFFERENT FILL-ORIGIN LEVEL: 0
L1D AVERAGE MISS LATENCY: 596.792 cycles
L1D RQ	ACCESS:   10940008	FORWARD:          0	MERGED:    3686473	TO_CACHE:    7102502
L1D WQ	ACCESS:    6420102	FORWARD:     151037	MERGED:      96027	TO_CACHE:    6324075
L1D PQ	ACCESS:       2727	FORWARD:          0	MERGED:          0	TO_CACHE:       2723

L1D UNIQUE REGIONS ACCESSED: 0
L1D REGIONS CONFLICTS: 0
L1D Cross Page Prefetch Requests: 0
L1D Same Page Prefetch Requests: 4438
L1D ROI Sum of L1D PQ occupancy: 35482
L1D PREFETCHES PUSHED FROM L2C: 0
L1I TOTAL     ACCESS:   16316003  HIT:   11494174  MISS:    4821829  HIT %:    70.4472  MISS %:    29.5528   MPKI: 96.4366
L1I LOAD      ACCESS:    9515415  HIT:    9502533  MISS:      12882  HIT %:    99.8646  MISS %:    0.13538   MPKI: 0.25764
L1I PREFETCH  ACCESS:    6800588  HIT:    1991641  MISS:    4808947  HIT %:    29.2863  MISS %:    70.7137   MPKI: 96.1789
L1I PREFETCH  REQUESTED:    7083704  ISSUED:    7063134  USEFUL:    4110372  USELESS:     698640
L1I USEFUL LOAD PREFETCHES:    4110372 PREFETCH ISSUED TO LOWER LEVEL:    4809562  ACCURACY: 85.4625
L1I TIMELY PREFETCHES:    4110372 LATE PREFETCHES: 615 DROPPED PREFETCHES: 120
L1I PREFETCHES SAME FILL-ORIGIN LEVEL: 4809562 DIFFERENT FILL-ORIGIN LEVEL: 0
L1I AVERAGE MISS LATENCY: 5075.52 cycles
L1I RQ	ACCESS:   14209172	FORWARD:          0	MERGED:    4689390	TO_CACHE:    9519782
L1I PQ	ACCESS:    7063134	FORWARD:          0	MERGED:     188830	TO_CACHE:    6874304

BTB TOTAL     ACCESS:    5412892  HIT:    4884021  MISS:     528871  HIT %:    90.2294  MISS %:    9.77058   MPKI: 10.5774
BTB BRANCH_DIRECT_JUMP	ACCESS:     541940  HIT:     528661  MISS:      13279
BTB BRANCH_INDIRECT	ACCESS:      59716  HIT:      59608  MISS:        108
BTB BRANCH_CONDITIONAL	ACCESS:    2331473  HIT:    2288277  MISS:      43196
BTB BRANCH_DIRECT_CALL	ACCESS:    1005459  HIT:     966792  MISS:      38667
BTB BRANCH_INDIRECT_CALL	ACCESS:     234433  HIT:     188681  MISS:      45752
BTB BRANCH_RETURN	ACCESS:    1239871  HIT:     852002  MISS:     387869
BTB BRANCH_OTHER ACCESS:          0  HIT:          0  MISS:          0

L2C TOTAL     ACCESS:    5501953  HIT:    5344802  MISS:     157151  HIT %:    97.1437  MISS %:    2.85628   MPKI: 3.14302
L2C LOAD      ACCESS:     388885  HIT:     274485  MISS:     114400  HIT %:    70.5826  MISS %:    29.4174   MPKI: 2.288
L2C DATA LOAD MPKI: 2.2628
L2C INSTRUCTION LOAD MPKI: 0.0252
L2C RFO       ACCESS:      61452  HIT:      33556  MISS:      27896  HIT %:    54.6052  MISS %:    45.3948   MPKI: 0.55792
L2C PREFETCH  ACCESS:    4810983  HIT:    4805276  MISS:       5707  HIT %:    99.8814  MISS %:   0.118624   MPKI: 0.11414
L2C DATA PREFETCH MPKI: 0.01748
L2C INSTRUCTION PREFETCH MPKI: 0.09666
L2C WRITEBACK ACCESS:     232001  HIT:     227702  MISS:       4299  HIT %:     98.147  MISS %:    1.85301   MPKI: 0.08598
L2C LOAD TRANSLATION ACCESS:       8228  HIT:       3477  MISS:       4751  HIT %:    42.2581  MISS %:    57.7419   MPKI: 0.09502
L2C TRANSLATION FROM L1D PREFETCHER ACCESS:        404  HIT:        306  MISS:         98  HIT %:    75.7426  MISS %:    24.2574   MPKI: 0.00196
L2C PREFETCH  REQUESTED:          0  ISSUED:          0  USEFUL:        314  USELESS:       5402
L2C USEFUL LOAD PREFETCHES:        314 PREFETCH ISSUED TO LOWER LEVEL:       5707  ACCURACY: 5.50202
L2C TIMELY PREFETCHES:        314 LATE PREFETCHES: 0 DROPPED PREFETCHES: 0
L2C PREFETCHES SAME FILL-ORIGIN LEVEL: 0 DIFFERENT FILL-ORIGIN LEVEL: 0
L2C AVERAGE MISS LATENCY: 52.2507 cycles
L2C RQ	ACCESS:     459044	FORWARD:          0	MERGED:          0	TO_CACHE:     458970
L2C WQ	ACCESS:     232001	FORWARD:         74	MERGED:          0	TO_CACHE:     232001
L2C PQ	ACCESS:    4810983	FORWARD:          0	MERGED:          0	TO_CACHE:    4810983

L2C Instructions Evicting Data 5372
L2C Translations Evicting Data 4399
L2C Data Evicting Data 132409
L2C Instructions Evicting Instructions 514
L2C Translations Evicting Instructions 244
L2C Data Evicting Instructions 5131
L2C Instructions Evicting Translations 207
L2C Translations Evicting Translations 206
L2C Data Evicting Translations 4370
L2C Dense regions hint from L2: 0
PSCL5 TOTAL     ACCESS:       6166  HIT:       6166  MISS:          0  HIT %:        100  MISS %:          0   MPKI: 0
PSCL5 LOAD TRANSLATION ACCESS:       6001  HIT:       6001  MISS:          0  HIT %:        100  MISS %:          0   MPKI: 0
PSCL5 TRANSLATION FROM L1D PREFETCHER ACCESS:        165  HIT:        165  MISS:          0  HIT %:        100  MISS %:          0   MPKI: 0
PSCL5 PREFETCH  REQUESTED:          0  ISSUED:          0  USEFUL:          0  USELESS:          0
PSCL5 USEFUL LOAD PREFETCHES:          0 PREFETCH ISSUED TO LOWER LEVEL:          0  ACCURACY: -nan
PSCL5 TIMELY PREFETCHES:          0 LATE PREFETCHES: 0 DROPPED PREFETCHES: 0
PSCL5 PREFETCHES SAME FILL-ORIGIN LEVEL: 0 DIFFERENT FILL-ORIGIN LEVEL: 0

PSCL4 TOTAL     ACCESS:       6073  HIT:       6068  MISS:          5  HIT %:    99.9177  MISS %:  0.0823316   MPKI: 0.0001
PSCL4 LOAD TRANSLATION ACCESS:       5966  HIT:       5961  MISS:          5  HIT %:    99.9162  MISS %:  0.0838082   MPKI: 0.0001
PSCL4 TRANSLATION FROM L1D PREFETCHER ACCESS:        107  HIT:        107  MISS:          0  HIT %:        100  MISS %:          0   MPKI: 0
PSCL4 PREFETCH  REQUESTED:          0  ISSUED:          0  USEFUL:          0  USELESS:          0
PSCL4 USEFUL LOAD PREFETCHES:          0 PREFETCH ISSUED TO LOWER LEVEL:          0  ACCURACY: -nan
PSCL4 TIMELY PREFETCHES:          0 LATE PREFETCHES: 0 DROPPED PREFETCHES: 0
PSCL4 PREFETCHES SAME FILL-ORIGIN LEVEL: 0 DIFFERENT FILL-ORIGIN LEVEL: 0

PSCL3 TOTAL     ACCESS:       6093  HIT:       6064  MISS:         29  HIT %:     99.524  MISS %:   0.475956   MPKI: 0.00058
PSCL3 LOAD TRANSLATION ACCESS:       5991  HIT:       5962  MISS:         29  HIT %:    99.5159  MISS %:   0.484059   MPKI: 0.00058
PSCL3 TRANSLATION FROM L1D PREFETCHER ACCESS:        102  HIT:        102  MISS:          0  HIT %:        100  MISS %:          0   MPKI: 0
PSCL3 PREFETCH  REQUESTED:          0  ISSUED:          0  USEFUL:          0  USELESS:          0
PSCL3 USEFUL LOAD PREFETCHES:          0 PREFETCH ISSUED TO LOWER LEVEL:          0  ACCURACY: -nan
PSCL3 TIMELY PREFETCHES:          0 LATE PREFETCHES: 0 DROPPED PREFETCHES: 0
PSCL3 PREFETCHES SAME FILL-ORIGIN LEVEL: 0 DIFFERENT FILL-ORIGIN LEVEL: 0

PSCL2 TOTAL     ACCESS:       6103  HIT:       3820  MISS:       2283  HIT %:    62.5922  MISS %:    37.4078   MPKI: 0.04566
PSCL2 LOAD TRANSLATION ACCESS:       6059  HIT:       3776  MISS:       2283  HIT %:    62.3205  MISS %:    37.6795   MPKI: 0.04566
PSCL2 TRANSLATION FROM L1D PREFETCHER ACCESS:         44  HIT:         44  MISS:          0  HIT %:        100  MISS %:          0   MPKI: 0
PSCL2 PREFETCH  REQUESTED:          0  ISSUED:          0  USEFUL:          0  USELESS:          0
PSCL2 USEFUL LOAD PREFETCHES:          0 PREFETCH ISSUED TO LOWER LEVEL:          0  ACCURACY: -nan
PSCL2 TIMELY PREFETCHES:          0 LATE PREFETCHES: 0 DROPPED PREFETCHES: 0
PSCL2 PREFETCHES SAME FILL-ORIGIN LEVEL: 0 DIFFERENT FILL-ORIGIN LEVEL: 0

LLC TOTAL     ACCESS:     230948  HIT:     207505  MISS:      23443  HIT %:    89.8492  MISS %:    10.1508   MPKI: 0.46886
LLC LOAD      ACCESS:     114399  HIT:      97665  MISS:      16734  HIT %:    85.3722  MISS %:    14.6278   MPKI: 0.33468
LLC RFO       ACCESS:      27896  HIT:      22373  MISS:       5523  HIT %:    80.2015  MISS %:    19.7985   MPKI: 0.11046
LLC PREFETCH  ACCESS:       5707  HIT:       4993  MISS:        714  HIT %:     87.489  MISS %:     12.511   MPKI: 0.01428
LLC WRITEBACK ACCESS:      78097  HIT:      77861  MISS:        236  HIT %:    99.6978  MISS %:   0.302188   MPKI: 0.00472
LLC LOAD TRANSLATION ACCESS:       4751  HIT:       4521  MISS:        230  HIT %:    95.1589  MISS %:    4.84109   MPKI: 0.0046
LLC TRANSLATION FROM L1D PREFETCHER ACCESS:         98  HIT:         92  MISS:          6  HIT %:    93.8776  MISS %:    6.12245   MPKI: 0.00012
LLC PREFETCH  REQUESTED:          0  ISSUED:          0  USEFUL:         21  USELESS:        358
LLC USEFUL LOAD PREFETCHES:         21 PREFETCH ISSUED TO LOWER LEVEL:        714  ACCURACY: 2.94118
LLC TIMELY PREFETCHES:         21 LATE PREFETCHES: 0 DROPPED PREFETCHES: 0
LLC PREFETCHES SAME FILL-ORIGIN LEVEL: 0 DIFFERENT FILL-ORIGIN LEVEL: 0
LLC AVERAGE MISS LATENCY: 154.381 cycles
LLC RQ	ACCESS:     147146	FORWARD:          0	MERGED:          0	TO_CACHE:     147145
LLC WQ	ACCESS:      78097	FORWARD:          1	MERGED:          0	TO_CACHE:      78097
LLC PQ	ACCESS:       5707	FORWARD:          0	MERGED:          0	TO_CACHE:       5707

LLC Dense regions hint to LLC: 0

RAW hits: 1600362
Loads Generated: 12540372
Loads sent to L1D: 10940008
Stores Generated: 6420092
Stores sent to L1D: 6420102
Major fault: 0 Minor fault: 5878
Allocated PAGES: 5878
I-Shadow cache 408 bytes
Touched + WorthPF tables 6144 bytes 
MMA filter 174 bytes 
FNL filter 272 bytes 
TOTAL PREFETCHER STORAGE SIZE: 25174 bytes
CPU 0 L1I next line prefetcher final stats

stream: 
stream:times selected: 4167
stream:pref_filled: 2016
stream:pref_useful: 508
stream:pref_late: 8
stream:misses: 35
stream:misses_by_poll: 0

CS: 
CS:times selected: 0
CS:pref_filled: 0
CS:pref_useful: 0
CS:pref_late: 0
CS:misses: 0
CS:misses_by_poll: 0

CPLX: 
CPLX:times selected: 3194
CPLX:pref_filled: 328
CPLX:pref_useful: 98
CPLX:pref_late: 1
CPLX:misses: 26
CPLX:misses_by_poll: 0

NL_L1: 
NL:times selected: 72
NL:pref_filled: 30
NL:pref_useful: 3
NL:pref_late: 0
NL:misses: 1
NL:misses_by_poll: 0

total selections: 7433
total_filled: 1414
total_useful: 417
total_late: 10
total_polluted: 0
total_misses_after_warmup: 8297
conflicts: 80775
Degree Incremented Times: 0
Degree Decremented Times: 1984

L1 IP Table Write Accesses: 88055
L1 IP Table Read Accesses: 7280
L1 RST Write Accesses: 2853
L1 RST Read Accesses: 5706
L1 CSPT Write Accesses: 2853
L1 CSPT Read Accesses: 7372
L1 RR Filter Tag Write Accesses: 2727
L1 RR Filter Tag Read Accesses: 108064
L1 IP Table Tag Write Accesses: 171303
L1 IP Table Tag Read Accesses: 171303
L1 RST Tag Write Accesses: 0
L1 RST Tag Read Accesses: 25842
L1 RR Filter Write Accesses: 0
L1 RR Filter Read Accesses: 3847
test: 1845

DRAM Statistics
 CHANNEL 0
 RQ ROW_BUFFER_HIT:       4241  ROW_BUFFER_MISS:      18966
 DBUS_CONGESTED:          6
 WQ ROW_BUFFER_HIT:        806  ROW_BUFFER_MISS:       7208  FULL:          0

 AVG_CONGESTED_CYCLE: 5
 All warmup complete: 2
Channel 0 Bank busy for read cycles: 0
Channel 0 Bank busy for write cycles: 0
Channel 0
Rank 0
0banks busy for read cycles: 54026663
0banks busy for write cycles: 5727
1banks busy for read cycles: 1898455
1banks busy for write cycles: 912450
2banks busy for read cycles: 543055
2banks busy for write cycles: 155887
3banks busy for read cycles: 14319
3banks busy for write cycles: 36482
4banks busy for read cycles: 2478
4banks busy for write cycles: 28871
5banks busy for read cycles: 2461
5banks busy for write cycles: 28828
6banks busy for read cycles: 953
6banks busy for write cycles: 14252
7banks busy for read cycles: 226
7banks busy for write cycles: 18521
8banks busy for read cycles: 0
8banks busy for write cycles: 14029

CPU 0 Branch Prediction Accuracy: 99.913% MPKI: 0.15656 Average ROB Occupancy at Mispredict: 48.2101
Branch types
NOT_BRANCH: 41001602 82.0032%
BRANCH_DIRECT_JUMP: 541940 1.08388%
BRANCH_INDIRECT: 59716 0.119432%
BRANCH_CONDITIONAL: 5916840 11.8337%
BRANCH_DIRECT_CALL: 1005459 2.01092%
BRANCH_INDIRECT_CALL: 234433 0.468866%
BRANCH_RETURN: 1239871 2.47974%
BRANCH_OTHER: 0 0%

DRAM PAGES: 1048576
Allocated PAGES: 5878
