Initialize SIGNATURE TABLE
ST_SET: 1
ST_WAY: 256
ST_TAG_BIT: 16
ST_TAG_MASK: ffff

Initialize PATTERN TABLE
PT_SET: 512
PT_WAY: 4
SIG_DELTA_BIT: 7
C_SIG_BIT: 4
C_DELTA_BIT: 4

Initialize PREFETCH FILTER
FILTER_SET: 1024

*** ChampSim Multicore Out-of-Order Simulator ***

Warmup Instructions: 50000000
Simulation Instructions: 50000000
Number of CPUs: 1
LLC sets: 2048
LLC ways: 16
Off-chip DRAM Size: 4096 MB Channels: 1 Width: 64-bit Data Rate: 6400 MT/s
CPU 0 runs ../../IPC-traces//server_037.champsimtrace.xz
.xz
NUM_OF_IPS_IN_CRITICAL_IP_TRAINING: 64
NUM_OF_CRITICAL_IP_TRAINING_TABLE_WAYS: 2
NUM_OF_CRITICAL_IP_TRAINING_TABLE_SETS: 32
WOBBLY_CRITICAL_IP_CACHE_SETS: 32
WOBBLY_CRITICAL_IP_CACHE_WAYS: 4
BTB has LRU replacement policy
ITLB has LRU replacement policy
DTLB has LRU replacement policy
STLB has LRU replacement policy
CPU 0 L1I next line prefetcher
L1I has LRU replacement policy
L1D has LRU replacement policy
Initialize SRRIP state for L2C
Initialize DRRIP state for LLC
Heartbeat CPU 0 instructions: 10000000 cycles: 2749701 heartbeat IPC: 3.63676 cumulative IPC: 3.63676 (Simulation time: 0 hr 1 min 10 sec) 
Heartbeat CPU 0 instructions: 20000001 cycles: 5496113 heartbeat IPC: 3.64111 cumulative IPC: 3.63894 (Simulation time: 0 hr 2 min 11 sec) 
Heartbeat CPU 0 instructions: 30000000 cycles: 8296687 heartbeat IPC: 3.5707 cumulative IPC: 3.6159 (Simulation time: 0 hr 3 min 17 sec) 
Heartbeat CPU 0 instructions: 40000003 cycles: 11042980 heartbeat IPC: 3.64127 cumulative IPC: 3.62221 (Simulation time: 0 hr 3 min 54 sec) 
Heartbeat CPU 0 instructions: 50000002 cycles: 13788535 heartbeat IPC: 3.64225 cumulative IPC: 3.6262 (Simulation time: 0 hr 4 min 20 sec) 

Warmup complete CPU 0 instructions: 50000002 cycles: 13788535 (Simulation time: 0 hr 4 min 20 sec) 

% increase in all ip prefetch 289.112
% increase in all ip prefetch 1.1507
Heartbeat CPU 0 instructions: 60000000 cycles: 25292327 heartbeat IPC: 0.869278 cumulative IPC: 0.869278 (Simulation time: 0 hr 4 min 54 sec) 
Heartbeat CPU 0 instructions: 70000000 cycles: 36916731 heartbeat IPC: 0.860259 cumulative IPC: 0.864745 (Simulation time: 0 hr 5 min 26 sec) 
Heartbeat CPU 0 instructions: 80000001 cycles: 48375401 heartbeat IPC: 0.872702 cumulative IPC: 0.867381 (Simulation time: 0 hr 6 min 0 sec) 
Heartbeat CPU 0 instructions: 90000002 cycles: 59854087 heartbeat IPC: 0.87118 cumulative IPC: 0.868328 (Simulation time: 0 hr 6 min 33 sec) 
*** Reached end of trace for Core: 0 Repeating trace: ../../IPC-traces//server_037.champsimtrace.xz
Heartbeat CPU 0 instructions: 100000003 cycles: 71345830 heartbeat IPC: 0.87019 cumulative IPC: 0.8687 (Simulation time: 0 hr 7 min 4 sec) 
Finished CPU 0 instructions: 50000001 cycles: 57557295 cumulative IPC: 0.8687 (Simulation time: 0 hr 7 min 4 sec) 

ChampSim completed all CPUs

Region of Interest Statistics

CPU 0 cumulative IPC: 0.8687 instructions: 50000001 cycles: 57557295

CPU 0 Average Load ROB stall cycles: 4.65026e+06
CPU 0 Fraction of times ROB stalled by Loads: 10.9048
CPU 0 Percentage of Load stall cycles in Total stall cycles: 7.52163e+07
 Total stall cycles: 32682312
 Total load stall cycles: 24582414586317
CPU 0 NUM of IPS identified critical: 0
CPU 0 Num of Load IPs stalling ROB: 2063
Threshold modification factor: -1
Max PIST entries: 64
Min PIST entries: 0
Avg PIST entries: 32
Trouble in retire width: 0.72186
MaC = Marked as critical.
lt_50_percent_before_Mac: 0
gt_90_percent_before_Mac: 0
gt_75_percent_before_Mac: 0
gt_50_percent_before_Mac: 0
stall_proportion_bin_same_before_after: 0
stall_proportion_bin_lower_before_after: 0
stall_proportion_bin_upper_before_after: 0
average_stall_proportion_before: -nan
average_stall_proportion_after: -nan
Critical IP stalls, total frequency: 0
Non-critical IP stalls, total frequency: 552217
Critical_IP_ROB_Stalls_Bucket_0: 0
Non-critical_IP_ROB_Stalls_Bucket_0: 344376
Critical_IP_ROB_Stalls_Bucket_1: 0
Non-critical_IP_ROB_Stalls_Bucket_1: 165257
Critical_IP_ROB_Stalls_Bucket_2: 0
Non-critical_IP_ROB_Stalls_Bucket_2: 47919
Critical_IP_ROB_Stalls_Bucket_3: 0
Non-critical_IP_ROB_Stalls_Bucket_3: 13515
Critical_IP_ROB_Stalls_Bucket_4: 0
Non-critical_IP_ROB_Stalls_Bucket_4: 2946
Critical_IP_ROB_Stalls_Bucket_5: 0
Non-critical_IP_ROB_Stalls_Bucket_5: 1924
Critical_IP_ROB_Stalls_Bucket_6: 0
Non-critical_IP_ROB_Stalls_Bucket_6: 518
0 => IPs accounting for >50 percent of stalls, 1 => 55, 2 => 60, 3 => 65 and so on till 90.
percent50: 50.15 num IPs:82
percent55: 55.3154 num IPs:95
percent60: 60.1465 num IPs:108
percent65: 65.1909 num IPs:123
percent70: 70.0603 num IPs:140
percent75: 75.0281 num IPs:163
percent80: 80.0401 num IPs:197
percent85: 85.0035 num IPs:251
percent90: 90.017 num IPs:344
Critical_ROB_Stalls_Percent_0_Bucket_0: 174657
Non-critical_ROB_Stalls_Percent_0_Bucket_0: 169719
Critical_ROB_Stalls_Percent_0_Bucket_1: 71844
Non-critical_ROB_Stalls_Percent_0_Bucket_1: 93413
Critical_ROB_Stalls_Percent_0_Bucket_2: 22793
Non-critical_ROB_Stalls_Percent_0_Bucket_2: 25126
Critical_ROB_Stalls_Percent_0_Bucket_3: 5574
Non-critical_ROB_Stalls_Percent_0_Bucket_3: 7941
Critical_ROB_Stalls_Percent_0_Bucket_4: 1575
Non-critical_ROB_Stalls_Percent_0_Bucket_4: 1371
Critical_ROB_Stalls_Percent_0_Bucket_5: 492
Non-critical_ROB_Stalls_Percent_0_Bucket_5: 1432
Critical_ROB_Stalls_Percent_0_Bucket_6: 2
Non-critical_ROB_Stalls_Percent_0_Bucket_6: 516
Critical_ROB_Stalls_Percent_1_Bucket_0: 194644
Non-critical_ROB_Stalls_Percent_1_Bucket_0: 149732
Critical_ROB_Stalls_Percent_1_Bucket_1: 78334
Non-critical_ROB_Stalls_Percent_1_Bucket_1: 86923
Critical_ROB_Stalls_Percent_1_Bucket_2: 24817
Non-critical_ROB_Stalls_Percent_1_Bucket_2: 23102
Critical_ROB_Stalls_Percent_1_Bucket_3: 5596
Non-critical_ROB_Stalls_Percent_1_Bucket_3: 7919
Critical_ROB_Stalls_Percent_1_Bucket_4: 1576
Non-critical_ROB_Stalls_Percent_1_Bucket_4: 1370
Critical_ROB_Stalls_Percent_1_Bucket_5: 492
Non-critical_ROB_Stalls_Percent_1_Bucket_5: 1432
Critical_ROB_Stalls_Percent_1_Bucket_6: 2
Non-critical_ROB_Stalls_Percent_1_Bucket_6: 516
Critical_ROB_Stalls_Percent_2_Bucket_0: 211009
Non-critical_ROB_Stalls_Percent_2_Bucket_0: 133367
Critical_ROB_Stalls_Percent_2_Bucket_1: 85639
Non-critical_ROB_Stalls_Percent_2_Bucket_1: 79618
Critical_ROB_Stalls_Percent_2_Bucket_2: 26925
Non-critical_ROB_Stalls_Percent_2_Bucket_2: 20994
Critical_ROB_Stalls_Percent_2_Bucket_3: 6483
Non-critical_ROB_Stalls_Percent_2_Bucket_3: 7032
Critical_ROB_Stalls_Percent_2_Bucket_4: 1589
Non-critical_ROB_Stalls_Percent_2_Bucket_4: 1357
Critical_ROB_Stalls_Percent_2_Bucket_5: 492
Non-critical_ROB_Stalls_Percent_2_Bucket_5: 1432
Critical_ROB_Stalls_Percent_2_Bucket_6: 2
Non-critical_ROB_Stalls_Percent_2_Bucket_6: 516
Critical_ROB_Stalls_Percent_3_Bucket_0: 233230
Non-critical_ROB_Stalls_Percent_3_Bucket_0: 111146
Critical_ROB_Stalls_Percent_3_Bucket_1: 91125
Non-critical_ROB_Stalls_Percent_3_Bucket_1: 74132
Critical_ROB_Stalls_Percent_3_Bucket_2: 27074
Non-critical_ROB_Stalls_Percent_3_Bucket_2: 20845
Critical_ROB_Stalls_Percent_3_Bucket_3: 6483
Non-critical_ROB_Stalls_Percent_3_Bucket_3: 7032
Critical_ROB_Stalls_Percent_3_Bucket_4: 1589
Non-critical_ROB_Stalls_Percent_3_Bucket_4: 1357
Critical_ROB_Stalls_Percent_3_Bucket_5: 492
Non-critical_ROB_Stalls_Percent_3_Bucket_5: 1432
Critical_ROB_Stalls_Percent_3_Bucket_6: 2
Non-critical_ROB_Stalls_Percent_3_Bucket_6: 516
Critical_ROB_Stalls_Percent_4_Bucket_0: 247283
Non-critical_ROB_Stalls_Percent_4_Bucket_0: 97093
Critical_ROB_Stalls_Percent_4_Bucket_1: 101786
Non-critical_ROB_Stalls_Percent_4_Bucket_1: 63471
Critical_ROB_Stalls_Percent_4_Bucket_2: 28283
Non-critical_ROB_Stalls_Percent_4_Bucket_2: 19636
Critical_ROB_Stalls_Percent_4_Bucket_3: 7416
Non-critical_ROB_Stalls_Percent_4_Bucket_3: 6099
Critical_ROB_Stalls_Percent_4_Bucket_4: 1622
Non-critical_ROB_Stalls_Percent_4_Bucket_4: 1324
Critical_ROB_Stalls_Percent_4_Bucket_5: 493
Non-critical_ROB_Stalls_Percent_4_Bucket_5: 1431
Critical_ROB_Stalls_Percent_4_Bucket_6: 2
Non-critical_ROB_Stalls_Percent_4_Bucket_6: 516
Critical_ROB_Stalls_Percent_5_Bucket_0: 264320
Non-critical_ROB_Stalls_Percent_5_Bucket_0: 80056
Critical_ROB_Stalls_Percent_5_Bucket_1: 108121
Non-critical_ROB_Stalls_Percent_5_Bucket_1: 57136
Critical_ROB_Stalls_Percent_5_Bucket_2: 32134
Non-critical_ROB_Stalls_Percent_5_Bucket_2: 15785
Critical_ROB_Stalls_Percent_5_Bucket_3: 7622
Non-critical_ROB_Stalls_Percent_5_Bucket_3: 5893
Critical_ROB_Stalls_Percent_5_Bucket_4: 1624
Non-critical_ROB_Stalls_Percent_5_Bucket_4: 1322
Critical_ROB_Stalls_Percent_5_Bucket_5: 495
Non-critical_ROB_Stalls_Percent_5_Bucket_5: 1429
Critical_ROB_Stalls_Percent_5_Bucket_6: 2
Non-critical_ROB_Stalls_Percent_5_Bucket_6: 516
Critical_ROB_Stalls_Percent_6_Bucket_0: 280630
Non-critical_ROB_Stalls_Percent_6_Bucket_0: 63746
Critical_ROB_Stalls_Percent_6_Bucket_1: 116105
Non-critical_ROB_Stalls_Percent_6_Bucket_1: 49152
Critical_ROB_Stalls_Percent_6_Bucket_2: 33728
Non-critical_ROB_Stalls_Percent_6_Bucket_2: 14191
Critical_ROB_Stalls_Percent_6_Bucket_3: 8642
Non-critical_ROB_Stalls_Percent_6_Bucket_3: 4873
Critical_ROB_Stalls_Percent_6_Bucket_4: 1702
Non-critical_ROB_Stalls_Percent_6_Bucket_4: 1244
Critical_ROB_Stalls_Percent_6_Bucket_5: 1110
Non-critical_ROB_Stalls_Percent_6_Bucket_5: 814
Critical_ROB_Stalls_Percent_6_Bucket_6: 78
Non-critical_ROB_Stalls_Percent_6_Bucket_6: 440
Critical_ROB_Stalls_Percent_7_Bucket_0: 293012
Non-critical_ROB_Stalls_Percent_7_Bucket_0: 51364
Critical_ROB_Stalls_Percent_7_Bucket_1: 126330
Non-critical_ROB_Stalls_Percent_7_Bucket_1: 38927
Critical_ROB_Stalls_Percent_7_Bucket_2: 36407
Non-critical_ROB_Stalls_Percent_7_Bucket_2: 11512
Critical_ROB_Stalls_Percent_7_Bucket_3: 10108
Non-critical_ROB_Stalls_Percent_7_Bucket_3: 3407
Critical_ROB_Stalls_Percent_7_Bucket_4: 2019
Non-critical_ROB_Stalls_Percent_7_Bucket_4: 927
Critical_ROB_Stalls_Percent_7_Bucket_5: 1435
Non-critical_ROB_Stalls_Percent_7_Bucket_5: 489
Critical_ROB_Stalls_Percent_7_Bucket_6: 93
Non-critical_ROB_Stalls_Percent_7_Bucket_6: 425
Critical_ROB_Stalls_Percent_8_Bucket_0: 309200
Non-critical_ROB_Stalls_Percent_8_Bucket_0: 35176
Critical_ROB_Stalls_Percent_8_Bucket_1: 135184
Non-critical_ROB_Stalls_Percent_8_Bucket_1: 30073
Critical_ROB_Stalls_Percent_8_Bucket_2: 38184
Non-critical_ROB_Stalls_Percent_8_Bucket_2: 9735
Critical_ROB_Stalls_Percent_8_Bucket_3: 10438
Non-critical_ROB_Stalls_Percent_8_Bucket_3: 3077
Critical_ROB_Stalls_Percent_8_Bucket_4: 2139
Non-critical_ROB_Stalls_Percent_8_Bucket_4: 807
Critical_ROB_Stalls_Percent_8_Bucket_5: 1581
Non-critical_ROB_Stalls_Percent_8_Bucket_5: 343
Critical_ROB_Stalls_Percent_8_Bucket_6: 363
Non-critical_ROB_Stalls_Percent_8_Bucket_6: 155
Average ROB occupancy Load Stall Begin: 47.3135
Average ROB occupancy Load Stall End: 53.1467
Min ROB occupancy Load Stall Begin: 1
Max ROB occupancy Load Stall Begin: 351
Min ROB occupancy Load Stall End: 1
Max ROB occupancy Load Stall End: 352
Average ROB occupancy Critical Load Stall Begin: -nan
Average ROB occupancy Critical Load Stall End: -nan
Min ROB occupancy Critical Load Stall Begin: 400
Max ROB occupancy Critical Load Stall Begin: 0
Min ROB occupancy Critical Load Stall End: 400
Max ROB occupancy Critical Load Stall End: 0
 ROB Load Stall Begin Bucket Count 0: 379122
 ROB Load Stall End Bucket Count 0: 344376
 ROB Critical Load Stall Begin Bucket Count 0: 0
 ROB Critical Load Stall End Bucket Count 0: 0
 ROB Load Stall Begin Bucket Count 1: 142751
 ROB Load Stall End Bucket Count 1: 165257
 ROB Critical Load Stall Begin Bucket Count 1: 0
 ROB Critical Load Stall End Bucket Count 1: 0
 ROB Load Stall Begin Bucket Count 2: 40434
 ROB Load Stall End Bucket Count 2: 47919
 ROB Critical Load Stall Begin Bucket Count 2: 0
 ROB Critical Load Stall End Bucket Count 2: 0
 ROB Load Stall Begin Bucket Count 3: 10492
 ROB Load Stall End Bucket Count 3: 13515
 ROB Critical Load Stall Begin Bucket Count 3: 0
 ROB Critical Load Stall End Bucket Count 3: 0
 ROB Load Stall Begin Bucket Count 4: 1488
 ROB Load Stall End Bucket Count 4: 2946
 ROB Critical Load Stall Begin Bucket Count 4: 0
 ROB Critical Load Stall End Bucket Count 4: 0
 ROB Load Stall Begin Bucket Count 5: 1743
 ROB Load Stall End Bucket Count 5: 1924
 ROB Critical Load Stall Begin Bucket Count 5: 0
 ROB Critical Load Stall End Bucket Count 5: 0
 ROB Load Stall Begin Bucket Count 6: 425
 ROB Load Stall End Bucket Count 6: 518
 ROB Critical Load Stall Begin Bucket Count 6: 0
 ROB Critical Load Stall End Bucket Count 6: 0
PIST Tag Read Accesses: 312580
PIST Read Accesses: 156290
PIST Tag Write Accesses: 312580
PIST Write Accesses: 156290
Criticality detector called times: 291545
Max global_stall_cycles_count: 280357
Threshold Modified: 1 times, factor: -1
ITLB TOTAL     ACCESS:   10676963  HIT:    9942251  MISS:     734712  HIT %:    93.1187  MISS %:    6.88128   MPKI: 14.6942
ITLB LOAD TRANSLATION ACCESS:    8015457  HIT:    7990012  MISS:      25445  HIT %:    99.6826  MISS %:   0.317449   MPKI: 0.5089
ITLB TRANSLATION FROM L1D PREFETCHER ACCESS:    2661506  HIT:    1952239  MISS:     709267  HIT %:    73.3509  MISS %:    26.6491   MPKI: 14.1853
ITLB PREFETCH  REQUESTED:          0  ISSUED:          0  USEFUL:     659782  USELESS:      49485
ITLB USEFUL LOAD PREFETCHES:     659782 PREFETCH ISSUED TO LOWER LEVEL:          0  ACCURACY: inf
ITLB TIMELY PREFETCHES:     659782 LATE PREFETCHES: 136 DROPPED PREFETCHES: 70
ITLB PREFETCHES SAME FILL-ORIGIN LEVEL: 0 DIFFERENT FILL-ORIGIN LEVEL: 0
ITLB AVERAGE MISS LATENCY: 7633.61 cycles
ITLB RQ	ACCESS:   16463630	FORWARD:          0	MERGED:    5714187	TO_CACHE:   10749443

DTLB TOTAL     ACCESS:    9386450  HIT:    8861394  MISS:     525056  HIT %:    94.4062  MISS %:    5.59377   MPKI: 10.5011
DTLB LOAD TRANSLATION ACCESS:    9386450  HIT:    8861394  MISS:     525056  HIT %:    94.4062  MISS %:    5.59377   MPKI: 10.5011
DTLB PREFETCH  REQUESTED:          0  ISSUED:          0  USEFUL:          0  USELESS:          0
DTLB USEFUL LOAD PREFETCHES:          0 PREFETCH ISSUED TO LOWER LEVEL:          0  ACCURACY: -nan
DTLB TIMELY PREFETCHES:          0 LATE PREFETCHES: 0 DROPPED PREFETCHES: 0
DTLB PREFETCHES SAME FILL-ORIGIN LEVEL: 0 DIFFERENT FILL-ORIGIN LEVEL: 0
DTLB AVERAGE MISS LATENCY: 10.0513 cycles
DTLB RQ	ACCESS:   13423242	FORWARD:          0	MERGED:    3993989	TO_CACHE:    9429253

STLB TOTAL     ACCESS:    1259768  HIT:    1253668  MISS:       6100  HIT %:    99.5158  MISS %:   0.484216   MPKI: 0.122
STLB LOAD TRANSLATION ACCESS:     550366  HIT:     544363  MISS:       6003  HIT %:    98.9093  MISS %:    1.09073   MPKI: 0.12006
STLB TRANSLATION FROM L1D PREFETCHER ACCESS:     709402  HIT:     709305  MISS:         97  HIT %:    99.9863  MISS %:  0.0136735   MPKI: 0.00194
STLB PREFETCH  REQUESTED:          0  ISSUED:          0  USEFUL:         70  USELESS:         22
STLB USEFUL LOAD PREFETCHES:         70 PREFETCH ISSUED TO LOWER LEVEL:          0  ACCURACY: inf
STLB TIMELY PREFETCHES:         70 LATE PREFETCHES: 0 DROPPED PREFETCHES: 71
STLB PREFETCHES SAME FILL-ORIGIN LEVEL: 0 DIFFERENT FILL-ORIGIN LEVEL: 0
STLB AVERAGE MISS LATENCY: 92.208 cycles
STLB RQ	ACCESS:    1259839	FORWARD:          0	MERGED:          0	TO_CACHE:    1259839

STLB Hit, L1D data hit: 0
STLB Hit, L2C data hit: 0
STLB Hit, LLC data hit: 0
STLB Hit, LLC data miss: 0
STLB STLB hints to L2: 0
L1D TOTAL     ACCESS:   13321543  HIT:   12883256  MISS:     438287  HIT %:    96.7099  MISS %:    3.29006   MPKI: 8.76574
L1D LOAD      ACCESS:    7083566  HIT:    6706547  MISS:     377019  HIT %:    94.6776  MISS %:    5.32245   MPKI: 7.54038
L1D RFO       ACCESS:    6237977  HIT:    6176709  MISS:      61268  HIT %:    99.0178  MISS %:   0.982177   MPKI: 1.22536
L1D PREFETCH  REQUESTED:          0  ISSUED:          0  USEFUL:          0  USELESS:          0
L1D USEFUL LOAD PREFETCHES:          0 PREFETCH ISSUED TO LOWER LEVEL:          0  ACCURACY: -nan
L1D TIMELY PREFETCHES:          0 LATE PREFETCHES: 0 DROPPED PREFETCHES: 0
L1D PREFETCHES SAME FILL-ORIGIN LEVEL: 0 DIFFERENT FILL-ORIGIN LEVEL: 0
L1D AVERAGE MISS LATENCY: 32.732 cycles
L1D RQ	ACCESS:   10936541	FORWARD:          0	MERGED:    3685234	TO_CACHE:    7099355
L1D WQ	ACCESS:    6420102	FORWARD:     151952	MERGED:      96215	TO_CACHE:    6323887

L1D UNIQUE REGIONS ACCESSED: 0
L1D REGIONS CONFLICTS: 0
L1D Cross Page Prefetch Requests: 0
L1D Same Page Prefetch Requests: 0
L1D ROI Sum of L1D PQ occupancy: 0
L1D PREFETCHES PUSHED FROM L2C: 0
L1I TOTAL     ACCESS:   16369029  HIT:   11531259  MISS:    4837770  HIT %:    70.4456  MISS %:    29.5544   MPKI: 96.7554
L1I LOAD      ACCESS:    9513499  HIT:    9500296  MISS:      13203  HIT %:    99.8612  MISS %:   0.138782   MPKI: 0.26406
L1I PREFETCH  ACCESS:    6855530  HIT:    2030963  MISS:    4824567  HIT %:    29.6252  MISS %:    70.3748   MPKI: 96.4913
L1I PREFETCH  REQUESTED:    7146883  ISSUED:    7129148  USEFUL:    4107728  USELESS:     716889
L1I USEFUL LOAD PREFETCHES:    4107728 PREFETCH ISSUED TO LOWER LEVEL:    4825541  ACCURACY: 85.1247
L1I TIMELY PREFETCHES:    4107728 LATE PREFETCHES: 753 DROPPED PREFETCHES: 124
L1I PREFETCHES SAME FILL-ORIGIN LEVEL: 4825541 DIFFERENT FILL-ORIGIN LEVEL: 0
L1I AVERAGE MISS LATENCY: 6323.84 cycles
L1I RQ	ACCESS:   14199773	FORWARD:          0	MERGED:    4681926	TO_CACHE:    9517847
L1I PQ	ACCESS:    7129148	FORWARD:          0	MERGED:     183365	TO_CACHE:    6945783

BTB TOTAL     ACCESS:    5412899  HIT:    4884028  MISS:     528871  HIT %:    90.2294  MISS %:    9.77057   MPKI: 10.5774
BTB BRANCH_DIRECT_JUMP	ACCESS:     541940  HIT:     528661  MISS:      13279
BTB BRANCH_INDIRECT	ACCESS:      59716  HIT:      59608  MISS:        108
BTB BRANCH_CONDITIONAL	ACCESS:    2331473  HIT:    2288277  MISS:      43196
BTB BRANCH_DIRECT_CALL	ACCESS:    1005463  HIT:     966796  MISS:      38667
BTB BRANCH_INDIRECT_CALL	ACCESS:     234435  HIT:     188683  MISS:      45752
BTB BRANCH_RETURN	ACCESS:    1239872  HIT:     852003  MISS:     387869
BTB BRANCH_OTHER ACCESS:          0  HIT:          0  MISS:          0

L2C TOTAL     ACCESS:    7652394  HIT:    7477742  MISS:     174652  HIT %:    97.7177  MISS %:    2.28232   MPKI: 3.49304
L2C LOAD      ACCESS:     389393  HIT:     267757  MISS:     121636  HIT %:    68.7627  MISS %:    31.2373   MPKI: 2.43272
L2C DATA LOAD MPKI: 2.40872
L2C INSTRUCTION LOAD MPKI: 0.024
L2C RFO       ACCESS:      61268  HIT:      31146  MISS:      30122  HIT %:    50.8357  MISS %:    49.1643   MPKI: 0.60244
L2C PREFETCH  ACCESS:    6961156  HIT:    6948837  MISS:      12319  HIT %:     99.823  MISS %:   0.176968   MPKI: 0.24638
L2C DATA PREFETCH MPKI: 0.1408
L2C INSTRUCTION PREFETCH MPKI: 0.10558
L2C WRITEBACK ACCESS:     231938  HIT:     226653  MISS:       5285  HIT %:    97.7214  MISS %:    2.27863   MPKI: 0.1057
L2C LOAD TRANSLATION ACCESS:       8238  HIT:       3044  MISS:       5194  HIT %:    36.9507  MISS %:    63.0493   MPKI: 0.10388
L2C TRANSLATION FROM L1D PREFETCHER ACCESS:        401  HIT:        305  MISS:         96  HIT %:    76.0599  MISS %:    23.9401   MPKI: 0.00192
L2C PREFETCH  REQUESTED:    7335251  ISSUED:    7334306  USEFUL:       3327  USELESS:       9010
L2C USEFUL LOAD PREFETCHES:       3327 PREFETCH ISSUED TO LOWER LEVEL:    1344758  ACCURACY: 0.247405
L2C TIMELY PREFETCHES:       3327 LATE PREFETCHES: 568 DROPPED PREFETCHES: 0
L2C PREFETCHES SAME FILL-ORIGIN LEVEL: 7615 DIFFERENT FILL-ORIGIN LEVEL: 1331871
L2C AVERAGE MISS LATENCY: 49.4041 cycles
L2C RQ	ACCESS:     459377	FORWARD:          0	MERGED:          0	TO_CACHE:     459301
L2C WQ	ACCESS:     231938	FORWARD:         76	MERGED:          0	TO_CACHE:     231938
L2C PQ	ACCESS:   12159625	FORWARD:          0	MERGED:    3849997	TO_CACHE:    8309628

L2C Instructions Evicting Data 5763
L2C Translations Evicting Data 4805
L2C Data Evicting Data 147376
L2C Instructions Evicting Instructions 506
L2C Translations Evicting Instructions 239
L2C Data Evicting Instructions 5461
L2C Instructions Evicting Translations 210
L2C Translations Evicting Translations 246
L2C Data Evicting Translations 4761
L2C Dense regions hint from L2: 0
PSCL5 TOTAL     ACCESS:       6171  HIT:       6171  MISS:          0  HIT %:        100  MISS %:          0   MPKI: 0
PSCL5 LOAD TRANSLATION ACCESS:       6003  HIT:       6003  MISS:          0  HIT %:        100  MISS %:          0   MPKI: 0
PSCL5 TRANSLATION FROM L1D PREFETCHER ACCESS:        168  HIT:        168  MISS:          0  HIT %:        100  MISS %:          0   MPKI: 0
PSCL5 PREFETCH  REQUESTED:          0  ISSUED:          0  USEFUL:          0  USELESS:          0
PSCL5 USEFUL LOAD PREFETCHES:          0 PREFETCH ISSUED TO LOWER LEVEL:          0  ACCURACY: -nan
PSCL5 TIMELY PREFETCHES:          0 LATE PREFETCHES: 0 DROPPED PREFETCHES: 0
PSCL5 PREFETCHES SAME FILL-ORIGIN LEVEL: 0 DIFFERENT FILL-ORIGIN LEVEL: 0

PSCL4 TOTAL     ACCESS:       6078  HIT:       6073  MISS:          5  HIT %:    99.9177  MISS %:  0.0822639   MPKI: 0.0001
PSCL4 LOAD TRANSLATION ACCESS:       5968  HIT:       5963  MISS:          5  HIT %:    99.9162  MISS %:  0.0837802   MPKI: 0.0001
PSCL4 TRANSLATION FROM L1D PREFETCHER ACCESS:        110  HIT:        110  MISS:          0  HIT %:        100  MISS %:          0   MPKI: 0
PSCL4 PREFETCH  REQUESTED:          0  ISSUED:          0  USEFUL:          0  USELESS:          0
PSCL4 USEFUL LOAD PREFETCHES:          0 PREFETCH ISSUED TO LOWER LEVEL:          0  ACCURACY: -nan
PSCL4 TIMELY PREFETCHES:          0 LATE PREFETCHES: 0 DROPPED PREFETCHES: 0
PSCL4 PREFETCHES SAME FILL-ORIGIN LEVEL: 0 DIFFERENT FILL-ORIGIN LEVEL: 0

PSCL3 TOTAL     ACCESS:       6098  HIT:       6069  MISS:         29  HIT %:    99.5244  MISS %:   0.475566   MPKI: 0.00058
PSCL3 LOAD TRANSLATION ACCESS:       5992  HIT:       5963  MISS:         29  HIT %:     99.516  MISS %:   0.483979   MPKI: 0.00058
PSCL3 TRANSLATION FROM L1D PREFETCHER ACCESS:        106  HIT:        106  MISS:          0  HIT %:        100  MISS %:          0   MPKI: 0
PSCL3 PREFETCH  REQUESTED:          0  ISSUED:          0  USEFUL:          0  USELESS:          0
PSCL3 USEFUL LOAD PREFETCHES:          0 PREFETCH ISSUED TO LOWER LEVEL:          0  ACCURACY: -nan
PSCL3 TIMELY PREFETCHES:          0 LATE PREFETCHES: 0 DROPPED PREFETCHES: 0
PSCL3 PREFETCHES SAME FILL-ORIGIN LEVEL: 0 DIFFERENT FILL-ORIGIN LEVEL: 0

PSCL2 TOTAL     ACCESS:       6108  HIT:       3823  MISS:       2285  HIT %:      62.59  MISS %:      37.41   MPKI: 0.0457
PSCL2 LOAD TRANSLATION ACCESS:       6056  HIT:       3771  MISS:       2285  HIT %:    62.2688  MISS %:    37.7312   MPKI: 0.0457
PSCL2 TRANSLATION FROM L1D PREFETCHER ACCESS:         52  HIT:         52  MISS:          0  HIT %:        100  MISS %:          0   MPKI: 0
PSCL2 PREFETCH  REQUESTED:          0  ISSUED:          0  USEFUL:          0  USELESS:          0
PSCL2 USEFUL LOAD PREFETCHES:          0 PREFETCH ISSUED TO LOWER LEVEL:          0  ACCURACY: -nan
PSCL2 TIMELY PREFETCHES:          0 LATE PREFETCHES: 0 DROPPED PREFETCHES: 0
PSCL2 PREFETCHES SAME FILL-ORIGIN LEVEL: 0 DIFFERENT FILL-ORIGIN LEVEL: 0

LLC TOTAL     ACCESS:    1585105  HIT:    1536921  MISS:      48184  HIT %:    96.9602  MISS %:     3.0398   MPKI: 0.96368
LLC LOAD      ACCESS:     121075  HIT:     106901  MISS:      14174  HIT %:    88.2932  MISS %:    11.7068   MPKI: 0.28348
LLC RFO       ACCESS:      30114  HIT:      24708  MISS:       5406  HIT %:    82.0482  MISS %:    17.9518   MPKI: 0.10812
LLC PREFETCH  ACCESS:    1339600  HIT:    1312072  MISS:      27528  HIT %:    97.9451  MISS %:    2.05494   MPKI: 0.55056
LLC WRITEBACK ACCESS:      89026  HIT:      88492  MISS:        534  HIT %:    99.4002  MISS %:   0.599825   MPKI: 0.01068
LLC LOAD TRANSLATION ACCESS:       5194  HIT:       4664  MISS:        530  HIT %:    89.7959  MISS %:    10.2041   MPKI: 0.0106
LLC TRANSLATION FROM L1D PREFETCHER ACCESS:         96  HIT:         84  MISS:         12  HIT %:       87.5  MISS %:       12.5   MPKI: 0.00024
LLC PREFETCH  REQUESTED:          0  ISSUED:          0  USEFUL:       5177  USELESS:      21348
LLC USEFUL LOAD PREFETCHES:       5177 PREFETCH ISSUED TO LOWER LEVEL:      27812  ACCURACY: 18.6143
LLC TIMELY PREFETCHES:       5177 LATE PREFETCHES: 284 DROPPED PREFETCHES: 0
LLC PREFETCHES SAME FILL-ORIGIN LEVEL: 26760 DIFFERENT FILL-ORIGIN LEVEL: 0
LLC AVERAGE MISS LATENCY: 163.304 cycles
LLC RQ	ACCESS:     156481	FORWARD:          0	MERGED:          0	TO_CACHE:     156480
LLC WQ	ACCESS:      89026	FORWARD:          1	MERGED:          0	TO_CACHE:      89026
LLC PQ	ACCESS:    1344758	FORWARD:          0	MERGED:       2030	TO_CACHE:    1342728

LLC Dense regions hint to LLC: 0

RAW hits: 1603829
Loads Generated: 12540372
Loads sent to L1D: 10936541
Stores Generated: 6420092
Stores sent to L1D: 6420102
Major fault: 0 Minor fault: 5878
Allocated PAGES: 5878
I-Shadow cache 408 bytes
Touched + WorthPF tables 6144 bytes 
MMA filter 174 bytes 
FNL filter 272 bytes 
TOTAL PREFETCHER STORAGE SIZE: 25174 bytes
CPU 0 L1I next line prefetcher final stats
 All Calls: 10099586
 Critical Calls: 10099586
------------------
Depth Distribution
------------------
depth 0: 0
depth 1: 9072964
depth 2: 4377851
depth 3: 880459
depth 4: 24702
depth 5: 1604
depth 6: 105
depth 7: 1
depth 8: 0
depth 9: 0
depth 10: 0
depth 11: 0
depth 12: 0
depth 13: 0
depth 14: 0
depth 15: 0
depth 16: 0
depth 17: 0
depth 18: 0
depth 19: 0
depth 20: 0
depth 21: 0
depth 22: 0
depth 23: 0
depth 24: 0
depth 25: 0
depth 26: 0
depth 27: 0
depth 28: 0
depth 29: 0
Total: 14357686
-----------------------------
-----------------------------
	Captured at Filter
-----------------------------
depth 0: 0
depth 1: 2061323
depth 2: 1110060
depth 3: 400284
depth 4: 55620
depth 5: 532
depth 6: 3
depth 7: 0
depth 8: 0
depth 9: 0
depth 10: 0
depth 11: 0
depth 12: 0
depth 13: 0
depth 14: 0
depth 15: 0
depth 16: 0
depth 17: 0
depth 18: 0
depth 19: 0
depth 20: 0
depth 21: 0
depth 22: 0
depth 23: 0
depth 24: 0
depth 25: 0
depth 26: 0
depth 27: 0
depth 28: 0
depth 29: 0
-----------------------------
-----------------------------
		Lost at Page
-----------------------------
depth 0: 0
depth 1: 421123
depth 2: 152808
depth 3: 21440
depth 4: 542
depth 5: 81
depth 6: 5
depth 7: 0
depth 8: 0
depth 9: 0
depth 10: 0
depth 11: 0
depth 12: 0
depth 13: 0
depth 14: 0
depth 15: 0
depth 16: 0
depth 17: 0
depth 18: 0
depth 19: 0
depth 20: 0
depth 21: 0
depth 22: 0
depth 23: 0
depth 24: 0
depth 25: 0
depth 26: 0
depth 27: 0
depth 28: 0
depth 29: 0
-----------------------------
-----------------------------
	Lost due to PQ Size
-----------------------------
64869
-----------------------------
ST read accesses: 5027236
ST write accesses: 92679
PT read accesses: 75732937
PT write accesses: 7322941
FILTER read accesses: 14492496
FILTER write accesses: 484073
GHR read accesses: 2763130
GHR write accesses: 295738
GHR counter read accesses: 64979382
GHR counter write accesses: 5432012
ST tag read accesses: 2021306942
ST tag write accesses: 172539895

DRAM Statistics
 CHANNEL 0
 RQ ROW_BUFFER_HIT:       7914  ROW_BUFFER_MISS:      39735
 DBUS_CONGESTED:         14
 WQ ROW_BUFFER_HIT:       1086  ROW_BUFFER_MISS:      11198  FULL:          0

 AVG_CONGESTED_CYCLE: 4
 All warmup complete: 2
Channel 0 Bank busy for read cycles: 0
Channel 0 Bank busy for write cycles: 0
Channel 0
Rank 0
0banks busy for read cycles: 52896804
0banks busy for write cycles: 7884
1banks busy for read cycles: 1575013
1banks busy for write cycles: 1086251
2banks busy for read cycles: 545193
2banks busy for write cycles: 311723
3banks busy for read cycles: 465536
3banks busy for write cycles: 78274
4banks busy for read cycles: 474879
4banks busy for write cycles: 23474
5banks busy for read cycles: 51877
5banks busy for write cycles: 8367
6banks busy for read cycles: 17933
6banks busy for write cycles: 5042
7banks busy for read cycles: 3069
7banks busy for write cycles: 3334
8banks busy for read cycles: 769
8banks busy for write cycles: 1874

CPU 0 Branch Prediction Accuracy: 99.913% MPKI: 0.15656 Average ROB Occupancy at Mispredict: 48.0556
Branch types
NOT_BRANCH: 41001661 82.0033%
BRANCH_DIRECT_JUMP: 541940 1.08388%
BRANCH_INDIRECT: 59716 0.119432%
BRANCH_CONDITIONAL: 5916843 11.8337%
BRANCH_DIRECT_CALL: 1005463 2.01093%
BRANCH_INDIRECT_CALL: 234435 0.46887%
BRANCH_RETURN: 1239872 2.47974%
BRANCH_OTHER: 0 0%

DRAM PAGES: 1048576
Allocated PAGES: 5878
