MANA initialize 
tds: 2 tdm: 4
size MANA SINGLE: 25.5 KB
size MANA NULTIPLE: 9.875 KB
size HOBPT: 0.703125 KB
size SRQ: 0.0644531 KB
size SABs: 0.0402832 KB
size prefetch queue: 0.453125 KB
total: 36.636 KB

*** ChampSim Multicore Out-of-Order Simulator ***

Warmup Instructions: 50000000
Simulation Instructions: 50000000
Number of CPUs: 1
LLC sets: 2048
LLC ways: 16
Off-chip DRAM Size: 4096 MB Channels: 1 Width: 64-bit Data Rate: 6400 MT/s
CPU 0 runs ../IPC-traces//server_015.champsimtrace.xz
.xz
NUM_OF_IPS_IN_CRITICAL_IP_TRAINING: 128
NUM_OF_CRITICAL_IP_TRAINING_TABLE_WAYS: 8
NUM_OF_CRITICAL_IP_TRAINING_TABLE_SETS: 16
BTB has LRU replacement policy
ITLB has LRU replacement policy
DTLB has LRU replacement policy
STLB has LRU replacement policy
L1I has LRU replacement policy
L1D has LRU replacement policy
Bingo PHT WAYS: 12 and PHT_SIZE: 6144
Initialize SRRIP state for L2C
Initialize DRRIP state for LLC
Heartbeat CPU 0 instructions: 10000001 cycles: 2838632 heartbeat IPC: 3.52282 cumulative IPC: 3.52282 (Simulation time: 0 hr 4 min 47 sec) 
Heartbeat CPU 0 instructions: 20000001 cycles: 5701511 heartbeat IPC: 3.49299 cumulative IPC: 3.50784 (Simulation time: 0 hr 8 min 40 sec) 
Heartbeat CPU 0 instructions: 30000002 cycles: 8538330 heartbeat IPC: 3.52508 cumulative IPC: 3.51357 (Simulation time: 0 hr 12 min 22 sec) 
Heartbeat CPU 0 instructions: 40000001 cycles: 11372450 heartbeat IPC: 3.52843 cumulative IPC: 3.51727 (Simulation time: 0 hr 16 min 6 sec) 
Heartbeat CPU 0 instructions: 50000003 cycles: 14206339 heartbeat IPC: 3.52872 cumulative IPC: 3.51956 (Simulation time: 0 hr 19 min 2 sec) 

Warmup complete CPU 0 instructions: 50000003 cycles: 14206339 (Simulation time: 0 hr 19 min 2 sec) 

% increase in all ip prefetch 344.166
% increase in all ip prefetch 0.0965425
Heartbeat CPU 0 instructions: 60000002 cycles: 27788726 heartbeat IPC: 0.736248 cumulative IPC: 0.736248 (Simulation time: 0 hr 22 min 29 sec) 
Heartbeat CPU 0 instructions: 70000003 cycles: 41357197 heartbeat IPC: 0.737003 cumulative IPC: 0.736625 (Simulation time: 0 hr 25 min 54 sec) 
Heartbeat CPU 0 instructions: 80000000 cycles: 54921297 heartbeat IPC: 0.73724 cumulative IPC: 0.73683 (Simulation time: 0 hr 29 min 20 sec) 
Heartbeat CPU 0 instructions: 90000003 cycles: 68491186 heartbeat IPC: 0.736926 cumulative IPC: 0.736854 (Simulation time: 0 hr 32 min 46 sec) 
Heartbeat CPU 0 instructions: 100000003 cycles: 82059899 heartbeat IPC: 0.73699 cumulative IPC: 0.736881 (Simulation time: 0 hr 35 min 49 sec) 
Finished CPU 0 instructions: 50000000 cycles: 67853560 cumulative IPC: 0.736881 (Simulation time: 0 hr 35 min 49 sec) 

ChampSim completed all CPUs

Region of Interest Statistics

CPU 0 cumulative IPC: 0.736881 instructions: 50000000 cycles: 67853560

CPU 0 Average Load ROB stall cycles: 3.66587e+06
CPU 0 Fraction of times ROB stalled by Loads: 7.60702
CPU 0 Percentage of Load stall cycles in Total stall cycles: 6.22718e+07
 Total stall cycles: 33568537
 Total load stall cycles: 20903748229054
CPU 0 NUM of IPS identified critical: 0

Threshold modification factor: -1
Max PIST entries: 128
Min PIST entries: 0
Avg PIST entries: 63.8
Average ROB occupancy Load Stall Begin: 42.4225
Average ROB occupancy Load Stall End: 46.2937
Min ROB occupancy Load Stall Begin: 1
Max ROB occupancy Load Stall Begin: 351
Min ROB occupancy Load Stall End: 2
Max ROB occupancy Load Stall End: 352
Average ROB occupancy Critical Load Stall Begin: -nan
Average ROB occupancy Critical Load Stall End: -nan
Min ROB occupancy Critical Load Stall Begin: 400
Max ROB occupancy Critical Load Stall Begin: 0
Min ROB occupancy Critical Load Stall End: 400
Max ROB occupancy Critical Load Stall End: 0
 ROB Load Stall Begin Bucket Count 0: 309908
 ROB Load Stall End Bucket Count 0: 291719
 ROB Critical Load Stall Begin Bucket Count 0: 0
 ROB Critical Load Stall End Bucket Count 0: 0
 ROB Load Stall Begin Bucket Count 1: 103045
 ROB Load Stall End Bucket Count 1: 113612
 ROB Critical Load Stall Begin Bucket Count 1: 0
 ROB Critical Load Stall End Bucket Count 1: 0
 ROB Load Stall Begin Bucket Count 2: 13771
 ROB Load Stall End Bucket Count 2: 20901
 ROB Critical Load Stall Begin Bucket Count 2: 0
 ROB Critical Load Stall End Bucket Count 2: 0
 ROB Load Stall Begin Bucket Count 3: 2673
 ROB Load Stall End Bucket Count 3: 3099
 ROB Critical Load Stall Begin Bucket Count 3: 0
 ROB Critical Load Stall End Bucket Count 3: 0
 ROB Load Stall Begin Bucket Count 4: 895
 ROB Load Stall End Bucket Count 4: 870
 ROB Critical Load Stall Begin Bucket Count 4: 0
 ROB Critical Load Stall End Bucket Count 4: 0
 ROB Load Stall Begin Bucket Count 5: 801
 ROB Load Stall End Bucket Count 5: 892
 ROB Critical Load Stall Begin Bucket Count 5: 0
 ROB Critical Load Stall End Bucket Count 5: 0
 ROB Load Stall Begin Bucket Count 6: 2679
 ROB Load Stall End Bucket Count 6: 2679
 ROB Critical Load Stall Begin Bucket Count 6: 0
 ROB Critical Load Stall End Bucket Count 6: 0
Threshold Modified: 1 times, factor: -1
ITLB TOTAL     ACCESS:   12733778  HIT:   12329902  MISS:     403876  HIT %:    96.8283  MISS %:    3.17169   MPKI: 8.07752
ITLB LOAD TRANSLATION ACCESS:    8283543  HIT:    8210627  MISS:      72916  HIT %:    99.1197  MISS %:   0.880251   MPKI: 1.45832
ITLB TRANSLATION FROM L1D PREFETCHER ACCESS:    4450235  HIT:    4119275  MISS:     330960  HIT %:    92.5631  MISS %:    7.43691   MPKI: 6.6192
ITLB AVERAGE MISS LATENCY: 7.16296e+06 cycles
ITLB RQ	ACCESS:   22241756	FORWARD:          0	MERGED:    9374884	TO_CACHE:   12866872

DTLB TOTAL     ACCESS:   10940206  HIT:   10738302  MISS:     201904  HIT %:    98.1545  MISS %:    1.84552   MPKI: 4.03808
DTLB LOAD TRANSLATION ACCESS:   10940206  HIT:   10738302  MISS:     201904  HIT %:    98.1545  MISS %:    1.84552   MPKI: 4.03808
DTLB AVERAGE MISS LATENCY: 9.00386 cycles
DTLB RQ	ACCESS:   15857374	FORWARD:          0	MERGED:    4889616	TO_CACHE:   10967758

STLB TOTAL     ACCESS:     605780  HIT:     605775  MISS:          5  HIT %:    99.9992  MISS %: 0.000825382   MPKI: 0.0001
STLB LOAD TRANSLATION ACCESS:     214746  HIT:     214744  MISS:          2  HIT %:    99.9991  MISS %: 0.000931333   MPKI: 4e-05
STLB TRANSLATION FROM L1D PREFETCHER ACCESS:     391034  HIT:     391031  MISS:          3  HIT %:    99.9992  MISS %: 0.000767197   MPKI: 6e-05
STLB AVERAGE MISS LATENCY: 108.2 cycles
STLB RQ	ACCESS:     621594	FORWARD:          0	MERGED:          0	TO_CACHE:     621594

STLB Hit, L1D data hit: 0
STLB Hit, L2C data hit: 0
STLB Hit, LLC data hit: 0
STLB Hit, LLC data miss: 0
STLB STLB hints to L2: 0
L1D TOTAL     ACCESS:   15857228  HIT:   15856822  MISS:        406  HIT %:    99.9974  MISS %: 0.00256035   MPKI: 0.00812
L1D LOAD      ACCESS:    7245676  HIT:    7245329  MISS:        347  HIT %:    99.9952  MISS %: 0.00478906   MPKI: 0.00694
L1D RFO       ACCESS:    8611552  HIT:    8611493  MISS:         59  HIT %:    99.9993  MISS %: 0.000685126   MPKI: 0.00118
L1D AVERAGE MISS LATENCY: 33.9039 cycles
L1D RQ	ACCESS:   11385252	FORWARD:          0	MERGED:    3962910	TO_CACHE:    7245720
L1D WQ	ACCESS:    8732207	FORWARD:     176622	MERGED:     120553	TO_CACHE:    8611654

L1D UNIQUE REGIONS ACCESSED: 0
L1D REGIONS CONFLICTS: 0
L1D Cross Page Prefetch Requests: 0
L1D Same Page Prefetch Requests: 0
L1D ROI Sum of L1D PQ occupancy: 0
L1D PREFETCHES PUSHED FROM L2C: 0
L1I TOTAL     ACCESS:   21727736  HIT:   19762128  MISS:    1965608  HIT %:    90.9535  MISS %:    9.04654   MPKI: 39.3122
L1I LOAD      ACCESS:    9529176  HIT:    9150106  MISS:     379070  HIT %:     96.022  MISS %:    3.97799   MPKI: 7.5814
L1I PREFETCH  ACCESS:   12198560  HIT:   10612022  MISS:    1586538  HIT %:    86.9941  MISS %:    13.0059   MPKI: 31.7308
L1I PREFETCH  REQUESTED:   14050211  ISSUED:   13520025  USEFUL:    1465757  USELESS:     120772
L1I USEFUL LOAD PREFETCHES:    1465757 PREFETCH ISSUED TO LOWER LEVEL:    1761827  ACCURACY: 83.1953
L1I TIMELY PREFETCHES:    1465757 LATE PREFETCHES: 175289 DROPPED PREFETCHES: 17979
L1I PREFETCHES SAME FILL-ORIGIN LEVEL: 1761827 DIFFERENT FILL-ORIGIN LEVEL: 0
L1I AVERAGE MISS LATENCY: 4.31248e+06 cycles
L1I RQ	ACCESS:   13792527	FORWARD:          0	MERGED:    4195773	TO_CACHE:    9596754
L1I PQ	ACCESS:   13520025	FORWARD:          0	MERGED:     875023	TO_CACHE:   12645002

BTB TOTAL     ACCESS:    5529482  HIT:    5076528  MISS:     452954  HIT %:    91.8084  MISS %:    8.19162   MPKI: 9.05908
BTB BRANCH_DIRECT_JUMP	ACCESS:     436253  HIT:     436132  MISS:        121
BTB BRANCH_INDIRECT	ACCESS:          0  HIT:          0  MISS:          0
BTB BRANCH_CONDITIONAL	ACCESS:    2498616  HIT:    2498126  MISS:        490
BTB BRANCH_DIRECT_CALL	ACCESS:    1173392  HIT:    1173079  MISS:        313
BTB BRANCH_INDIRECT_CALL	ACCESS:     123911  HIT:     109310  MISS:      14601
BTB BRANCH_RETURN	ACCESS:    1297310  HIT:     859881  MISS:     437429
BTB BRANCH_OTHER ACCESS:          0  HIT:          0  MISS:          0

L2C TOTAL     ACCESS:    1982282  HIT:    1981978  MISS:        304  HIT %:    99.9847  MISS %:  0.0153359   MPKI: 0.00608
L2C LOAD      ACCESS:     204128  HIT:     204048  MISS:         80  HIT %:    99.9608  MISS %:  0.0391911   MPKI: 0.0016
L2C DATA LOAD MPKI: 0.00108
L2C INSTRUCTION LOAD MPKI: 0.00052
L2C RFO       ACCESS:         59  HIT:         52  MISS:          7  HIT %:    88.1356  MISS %:    11.8644   MPKI: 0.00014
L2C PREFETCH  ACCESS:    1762093  HIT:    1761887  MISS:        206  HIT %:    99.9883  MISS %:  0.0116906   MPKI: 0.00412
L2C DATA PREFETCH MPKI: 0.00144
L2C INSTRUCTION PREFETCH MPKI: 0.00268
L2C WRITEBACK ACCESS:        183  HIT:        176  MISS:          7  HIT %:    96.1749  MISS %:    3.82514   MPKI: 0.00014
L2C LOAD TRANSLATION ACCESS:          3  HIT:          1  MISS:          2  HIT %:    33.3333  MISS %:    66.6667   MPKI: 4e-05
L2C TRANSLATION FROM L1D PREFETCHER ACCESS:      15816  HIT:      15814  MISS:          2  HIT %:    99.9874  MISS %:  0.0126454   MPKI: 4e-05
L2C PREFETCH  REQUESTED:        266  ISSUED:        266  USEFUL:        137  USELESS:         83
L2C USEFUL LOAD PREFETCHES:        137 PREFETCH ISSUED TO LOWER LEVEL:        206  ACCURACY: 66.5049
L2C TIMELY PREFETCHES:        137 LATE PREFETCHES: 0 DROPPED PREFETCHES: 0
L2C PREFETCHES SAME FILL-ORIGIN LEVEL: 72 DIFFERENT FILL-ORIGIN LEVEL: 0
L2C AVERAGE MISS LATENCY: 72.8026 cycles
L2C RQ	ACCESS:     220006	FORWARD:          0	MERGED:          0	TO_CACHE:     220006
L2C WQ	ACCESS:        183	FORWARD:          0	MERGED:          0	TO_CACHE:        183
L2C PQ	ACCESS:    1762093	FORWARD:          0	MERGED:          0	TO_CACHE:    1762093

L2C Instructions Evicting Data126
L2C Translations Evicting Data3
L2C Data Evicting Data105
L2C Instructions Evicting Instructions29
L2C Translations Evicting Instructions1
L2C Data Evicting Instructions22
L2C Instructions Evicting Translations5
L2C Translations Evicting Translations0
L2C Data Evicting Translations6
L2C Dense regions hint from L2: 0
PSCL5 TOTAL     ACCESS:      15818  HIT:      15818  MISS:          0  HIT %:        100  MISS %:          0   MPKI: 0
PSCL5 LOAD TRANSLATION ACCESS:          2  HIT:          2  MISS:          0  HIT %:        100  MISS %:          0   MPKI: 0
PSCL5 TRANSLATION FROM L1D PREFETCHER ACCESS:      15816  HIT:      15816  MISS:          0  HIT %:        100  MISS %:          0   MPKI: 0

PSCL4 TOTAL     ACCESS:      15818  HIT:      15818  MISS:          0  HIT %:        100  MISS %:          0   MPKI: 0
PSCL4 LOAD TRANSLATION ACCESS:          2  HIT:          2  MISS:          0  HIT %:        100  MISS %:          0   MPKI: 0
PSCL4 TRANSLATION FROM L1D PREFETCHER ACCESS:      15816  HIT:      15816  MISS:          0  HIT %:        100  MISS %:          0   MPKI: 0

PSCL3 TOTAL     ACCESS:      15818  HIT:      15818  MISS:          0  HIT %:        100  MISS %:          0   MPKI: 0
PSCL3 LOAD TRANSLATION ACCESS:          2  HIT:          2  MISS:          0  HIT %:        100  MISS %:          0   MPKI: 0
PSCL3 TRANSLATION FROM L1D PREFETCHER ACCESS:      15816  HIT:      15816  MISS:          0  HIT %:        100  MISS %:          0   MPKI: 0

PSCL2 TOTAL     ACCESS:          5  HIT:          4  MISS:          1  HIT %:         80  MISS %:         20   MPKI: 2e-05
PSCL2 LOAD TRANSLATION ACCESS:          2  HIT:          1  MISS:          1  HIT %:         50  MISS %:         50   MPKI: 2e-05
PSCL2 TRANSLATION FROM L1D PREFETCHER ACCESS:          3  HIT:          3  MISS:          0  HIT %:        100  MISS %:          0   MPKI: 0

LLC TOTAL     ACCESS:        401  HIT:        324  MISS:         77  HIT %:     80.798  MISS %:     19.202   MPKI: 0.00154
LLC LOAD      ACCESS:         80  HIT:         48  MISS:         32  HIT %:         60  MISS %:         40   MPKI: 0.00064
LLC RFO       ACCESS:          7  HIT:          4  MISS:          3  HIT %:    57.1429  MISS %:    42.8571   MPKI: 6e-05
LLC PREFETCH  ACCESS:        206  HIT:        167  MISS:         39  HIT %:     81.068  MISS %:     18.932   MPKI: 0.00078
LLC WRITEBACK ACCESS:        104  HIT:        102  MISS:          2  HIT %:    98.0769  MISS %:    1.92308   MPKI: 4e-05
LLC LOAD TRANSLATION ACCESS:          2  HIT:          2  MISS:          0  HIT %:        100  MISS %:          0   MPKI: 0
LLC TRANSLATION FROM L1D PREFETCHER ACCESS:          2  HIT:          1  MISS:          1  HIT %:         50  MISS %:         50   MPKI: 2e-05
LLC AVERAGE MISS LATENCY: 171.714 cycles
LLC RQ	ACCESS:         91	FORWARD:          0	MERGED:          0	TO_CACHE:         91
LLC WQ	ACCESS:        104	FORWARD:          0	MERGED:          0	TO_CACHE:        104
LLC PQ	ACCESS:        206	FORWARD:          0	MERGED:          0	TO_CACHE:        206

LLC Dense regions hint to LLC: 0

RAW hits: 1463980
Loads Generated: 12849234
Loads sent to L1D: 11385252
Stores Generated: 8732204
Stores sent to L1D: 8732207
Major fault: 0 Minor fault: 1999
Allocated PAGES: 1999



Printing Logs
statHeadFound: 2241911
statHeadMissing: 1692437
statStreamBufferHit: 12152605
statPrefetchEntryFound: 9973633
statCompactorMatch: 12140172
statStreamTrackerLookup: 16086953
statRecord: 3946781
statGetPointer: 3934348
statEnqueuePrefetch: 25149909
statPrefetchQueueIsFull: 0
StreamBufferHitRate: 0.755432
Regions' size: 2875
next_region_correct: 2763204
next_region_wrong: 1180694
next_region_correct_prediction: 0.700628
statStreamBufferLookups: 160869530
statL1iLookups: 201199272
statCompactorLookups: 257391248
[Bingo] PHT Access: 60
[Bingo] PHT Hit PC+Addr: 18
[Bingo] PHT Hit PC+Offs: 22
[Bingo] PHT Miss: 20
[Bingo] Prefetch PC+Addr: 0
[Bingo] Prefetch PC+Offs: 0
[Bingo] Useful PC+Addr: 0
[Bingo] Useful PC+Offs: 0
[Bingo] Useless PC+Addr: 0
[Bingo] Useless PC+Offs: 0
[Bingo] L1 Prefetch per Region: 0
[Bingo] L2 Prefetch per Region: 7.65
[Bingo] L3 Prefetch per Region: 0
[Bingo] No Prefetch per Region: 24.35
[Bingo] Number of Voters Mean: 9.36364
[Bingo] Number of Voters SD: 53.1234
PHT read accesses: 334
PHT write accesses: 45
AT read accesses: 297
AT write accesses: 307
FT read accesses: 165
FT write accesses: 60
PS read accesses: 83
PS write accesses: 83
PHT tag read accesses: 1482
PHT tag write accesses: 63
AT tag read accesses: 12127
AT tag write accesses: 337
FT tag read accesses: 8882
FT tag write accesses: 165
PS tag read accesses: 6878
PS tag write accesses: 80

DRAM Statistics
 CHANNEL 0
 RQ ROW_BUFFER_HIT:         12  ROW_BUFFER_MISS:         63
 DBUS_CONGESTED:          0
 WQ ROW_BUFFER_HIT:          8  ROW_BUFFER_MISS:         46  FULL:          0

 AVG_CONGESTED_CYCLE: -
 All warmup complete: 2
Channel 0 Bank busy for read cycles: 0
Channel 0 Bank busy for write cycles: 0
Channel 0
Rank 0
0banks busy for read cycles: 67843206
0banks busy for write cycles: 20
1banks busy for read cycles: 3622
1banks busy for write cycles: 2539
2banks busy for read cycles: 951
2banks busy for write cycles: 814
3banks busy for read cycles: 472
3banks busy for write cycles: 396
4banks busy for read cycles: 370
4banks busy for write cycles: 696
5banks busy for read cycles: 326
5banks busy for write cycles: 118
6banks busy for read cycles: 0
6banks busy for write cycles: 31
7banks busy for read cycles: 0
7banks busy for write cycles: 0
8banks busy for read cycles: 0
8banks busy for write cycles: 0

CPU 0 Branch Prediction Accuracy: 99.9085% MPKI: 0.15428 Average ROB Occupancy at Mispredict: 51.318
Branch types
NOT_BRANCH: 41573094 83.1462%
BRANCH_DIRECT_JUMP: 436253 0.872506%
BRANCH_INDIRECT: 0 0%
BRANCH_CONDITIONAL: 5395886 10.7918%
BRANCH_DIRECT_CALL: 1173392 2.34678%
BRANCH_INDIRECT_CALL: 123911 0.247822%
BRANCH_RETURN: 1297310 2.59462%
BRANCH_OTHER: 0 0%

DRAM PAGES: 1048576
Allocated PAGES: 1999
