Initialize SIGNATURE TABLE
ST_SET: 1
ST_WAY: 256
ST_TAG_BIT: 16
ST_TAG_MASK: ffff

Initialize PATTERN TABLE
PT_SET: 512
PT_WAY: 4
SIG_DELTA_BIT: 7
C_SIG_BIT: 4
C_DELTA_BIT: 4

Initialize PREFETCH FILTER
FILTER_SET: 1024

*** ChampSim Multicore Out-of-Order Simulator ***

Warmup Instructions: 50000000
Simulation Instructions: 50000000
Number of CPUs: 1
LLC sets: 2048
LLC ways: 16
Off-chip DRAM Size: 4096 MB Channels: 1 Width: 64-bit Data Rate: 6400 MT/s
CPU 0 runs ../IPC-traces//server_020.champsimtrace.xz
.xz
BTB has LRU replacement policy
ITLB has LRU replacement policy
DTLB has LRU replacement policy
STLB has LRU replacement policy
CPU 0 L1I next line prefetcher
L1I has LRU replacement policy
L1D has LRU replacement policy
Initialize SRRIP state for L2C
Initialize DRRIP state for LLC
Heartbeat CPU 0 instructions: 10000003 cycles: 3284719 heartbeat IPC: 3.0444 cumulative IPC: 3.0444 (Simulation time: 0 hr 3 min 23 sec) 
Heartbeat CPU 0 instructions: 20000001 cycles: 6571327 heartbeat IPC: 3.04265 cumulative IPC: 3.04353 (Simulation time: 0 hr 6 min 23 sec) 
Heartbeat CPU 0 instructions: 30000000 cycles: 9847795 heartbeat IPC: 3.05207 cumulative IPC: 3.04637 (Simulation time: 0 hr 9 min 17 sec) 
Heartbeat CPU 0 instructions: 40000001 cycles: 13128172 heartbeat IPC: 3.04843 cumulative IPC: 3.04688 (Simulation time: 0 hr 11 min 48 sec) 
Heartbeat CPU 0 instructions: 50000000 cycles: 16420331 heartbeat IPC: 3.03752 cumulative IPC: 3.04501 (Simulation time: 0 hr 14 min 0 sec) 

Warmup complete CPU 0 instructions: 50000004 cycles: 16420332 (Simulation time: 0 hr 14 min 0 sec) 

Heartbeat CPU 0 instructions: 60000000 cycles: 37398075 heartbeat IPC: 0.476696 cumulative IPC: 0.476696 (Simulation time: 0 hr 17 min 38 sec) 
Heartbeat CPU 0 instructions: 70000002 cycles: 58461513 heartbeat IPC: 0.474756 cumulative IPC: 0.475724 (Simulation time: 0 hr 21 min 20 sec) 
Heartbeat CPU 0 instructions: 80000002 cycles: 79550106 heartbeat IPC: 0.47419 cumulative IPC: 0.475212 (Simulation time: 0 hr 24 min 56 sec) 
Heartbeat CPU 0 instructions: 90000003 cycles: 100651292 heartbeat IPC: 0.473907 cumulative IPC: 0.474885 (Simulation time: 0 hr 30 min 24 sec) 
Heartbeat CPU 0 instructions: 100000002 cycles: 121815165 heartbeat IPC: 0.472503 cumulative IPC: 0.474407 (Simulation time: 0 hr 35 min 16 sec) 
Finished CPU 0 instructions: 50000002 cycles: 105394834 cumulative IPC: 0.474407 (Simulation time: 0 hr 35 min 16 sec) 

ChampSim completed all CPUs

Region of Interest Statistics

CPU 0 cumulative IPC: 0.474407 instructions: 50000002 cycles: 105394834

CPU 0 Average Load ROB stall cycles: 3.18615e+07
CPU 0 Fraction of times ROB stalled by Loads: 46.2292
CPU 0 Percentage of Load stall cycles in Total stall cycles: 2.55309e+08
Issued all: 53493033
Issued LT all: 48202616
rob_not_full_when_issued_lt_all: 16883310
Issued LT one: 42386463
rob_not_full_when_issued_lt_one: 12878103
FVP critical_dynamic_instances_0: 2669099
FVP unique_critical_ips_0: 2785
 Total stall cycles: 87539832
 Total load stall cycles: 223496992930658
Unique Load IPs: 5965
CPU 0 NUM of IPS identified critical: 0
CPU 0 Num of Load IPs stalling ROB: 0
Threshold modification factor: 0
Trouble in retire width: -nan
MaC = Marked as critical.
lt_50_percent_before_Mac: 0
gt_90_percent_before_Mac: 0
gt_75_percent_before_Mac: 0
gt_50_percent_before_Mac: 0
stall_proportion_bin_same_before_after: 0
stall_proportion_bin_lower_before_after: 0
stall_proportion_bin_upper_before_after: 0
average_stall_proportion_before: -nan
average_stall_proportion_after: -nan
Critical IP stalls, total frequency: 0
Non-critical IP stalls, total frequency: 0
Total Freq all stalling IPs: 0
Critical_IP_Detector_Accuracy_70: 0.000359066
Critical_IP_Detector_Accuracy_80: 0.000359066
Critical_IP_Detector_Accuracy_90: 0.000359066
Critical_IP_Detector_Coverage_70: 1
Critical_IP_Detector_Coverage_80: 1
Critical_IP_Detector_Coverage_90: 1
stat_90_percent_critical_ip_stalls_freq: 285388
stat_90_percent_non_critical_ip_stalls_freq: 18446744073709266228
AVERAGE_ROB_Occupancy_90_Percent_Critical_IP_Stalls: 313.518
AVERAGE_ROB_Occupancy_90_Percent_Non_Critical_IP_Stalls: 2.94867e-11
Critical_IP_ROB_Stalls_Bucket_0: 0
Non-critical_IP_ROB_Stalls_Bucket_0: 485312
Critical_IP_ROB_Stalls_Bucket_1: 0
Non-critical_IP_ROB_Stalls_Bucket_1: 592957
Critical_IP_ROB_Stalls_Bucket_2: 0
Non-critical_IP_ROB_Stalls_Bucket_2: 439695
Critical_IP_ROB_Stalls_Bucket_3: 0
Non-critical_IP_ROB_Stalls_Bucket_3: 273714
Critical_IP_ROB_Stalls_Bucket_4: 0
Non-critical_IP_ROB_Stalls_Bucket_4: 170917
Critical_IP_ROB_Stalls_Bucket_5: 0
Non-critical_IP_ROB_Stalls_Bucket_5: 154786
Critical_IP_ROB_Stalls_Bucket_6: 0
Non-critical_IP_ROB_Stalls_Bucket_6: 1125430
0 => IPs accounting for >50 percent of stalls, 1 => 55, 2 => 60, 3 => 65 and so on till 90.
percent50: inf num IPs:  1
percent55: inf num IPs: 1
percent60: inf num IPs: 1
percent65: inf num IPs: 1
percent70: inf num IPs: 1
percent75: inf num IPs: 1
percent80: inf num IPs: 1
percent85: inf num IPs: 1
percent90: inf num IPs: 1
Critical_ROB_Stalls_Percent_0_Bucket_0: 666
Non-critical_ROB_Stalls_Percent_0_Bucket_0: 484646
Critical_ROB_Stalls_Percent_0_Bucket_1: 3435
Non-critical_ROB_Stalls_Percent_0_Bucket_1: 589522
Critical_ROB_Stalls_Percent_0_Bucket_2: 13179
Non-critical_ROB_Stalls_Percent_0_Bucket_2: 426516
Critical_ROB_Stalls_Percent_0_Bucket_3: 19183
Non-critical_ROB_Stalls_Percent_0_Bucket_3: 254531
Critical_ROB_Stalls_Percent_0_Bucket_4: 15934
Non-critical_ROB_Stalls_Percent_0_Bucket_4: 154983
Critical_ROB_Stalls_Percent_0_Bucket_5: 14840
Non-critical_ROB_Stalls_Percent_0_Bucket_5: 139946
Critical_ROB_Stalls_Percent_0_Bucket_6: 218151
Non-critical_ROB_Stalls_Percent_0_Bucket_6: 907279
Critical_ROB_Stalls_Percent_1_Bucket_0: 666
Non-critical_ROB_Stalls_Percent_1_Bucket_0: 484646
Critical_ROB_Stalls_Percent_1_Bucket_1: 3435
Non-critical_ROB_Stalls_Percent_1_Bucket_1: 589522
Critical_ROB_Stalls_Percent_1_Bucket_2: 13179
Non-critical_ROB_Stalls_Percent_1_Bucket_2: 426516
Critical_ROB_Stalls_Percent_1_Bucket_3: 19183
Non-critical_ROB_Stalls_Percent_1_Bucket_3: 254531
Critical_ROB_Stalls_Percent_1_Bucket_4: 15934
Non-critical_ROB_Stalls_Percent_1_Bucket_4: 154983
Critical_ROB_Stalls_Percent_1_Bucket_5: 14840
Non-critical_ROB_Stalls_Percent_1_Bucket_5: 139946
Critical_ROB_Stalls_Percent_1_Bucket_6: 218151
Non-critical_ROB_Stalls_Percent_1_Bucket_6: 907279
Critical_ROB_Stalls_Percent_2_Bucket_0: 666
Non-critical_ROB_Stalls_Percent_2_Bucket_0: 484646
Critical_ROB_Stalls_Percent_2_Bucket_1: 3435
Non-critical_ROB_Stalls_Percent_2_Bucket_1: 589522
Critical_ROB_Stalls_Percent_2_Bucket_2: 13179
Non-critical_ROB_Stalls_Percent_2_Bucket_2: 426516
Critical_ROB_Stalls_Percent_2_Bucket_3: 19183
Non-critical_ROB_Stalls_Percent_2_Bucket_3: 254531
Critical_ROB_Stalls_Percent_2_Bucket_4: 15934
Non-critical_ROB_Stalls_Percent_2_Bucket_4: 154983
Critical_ROB_Stalls_Percent_2_Bucket_5: 14840
Non-critical_ROB_Stalls_Percent_2_Bucket_5: 139946
Critical_ROB_Stalls_Percent_2_Bucket_6: 218151
Non-critical_ROB_Stalls_Percent_2_Bucket_6: 907279
Critical_ROB_Stalls_Percent_3_Bucket_0: 666
Non-critical_ROB_Stalls_Percent_3_Bucket_0: 484646
Critical_ROB_Stalls_Percent_3_Bucket_1: 3435
Non-critical_ROB_Stalls_Percent_3_Bucket_1: 589522
Critical_ROB_Stalls_Percent_3_Bucket_2: 13179
Non-critical_ROB_Stalls_Percent_3_Bucket_2: 426516
Critical_ROB_Stalls_Percent_3_Bucket_3: 19183
Non-critical_ROB_Stalls_Percent_3_Bucket_3: 254531
Critical_ROB_Stalls_Percent_3_Bucket_4: 15934
Non-critical_ROB_Stalls_Percent_3_Bucket_4: 154983
Critical_ROB_Stalls_Percent_3_Bucket_5: 14840
Non-critical_ROB_Stalls_Percent_3_Bucket_5: 139946
Critical_ROB_Stalls_Percent_3_Bucket_6: 218151
Non-critical_ROB_Stalls_Percent_3_Bucket_6: 907279
Critical_ROB_Stalls_Percent_4_Bucket_0: 666
Non-critical_ROB_Stalls_Percent_4_Bucket_0: 484646
Critical_ROB_Stalls_Percent_4_Bucket_1: 3435
Non-critical_ROB_Stalls_Percent_4_Bucket_1: 589522
Critical_ROB_Stalls_Percent_4_Bucket_2: 13179
Non-critical_ROB_Stalls_Percent_4_Bucket_2: 426516
Critical_ROB_Stalls_Percent_4_Bucket_3: 19183
Non-critical_ROB_Stalls_Percent_4_Bucket_3: 254531
Critical_ROB_Stalls_Percent_4_Bucket_4: 15934
Non-critical_ROB_Stalls_Percent_4_Bucket_4: 154983
Critical_ROB_Stalls_Percent_4_Bucket_5: 14840
Non-critical_ROB_Stalls_Percent_4_Bucket_5: 139946
Critical_ROB_Stalls_Percent_4_Bucket_6: 218151
Non-critical_ROB_Stalls_Percent_4_Bucket_6: 907279
Critical_ROB_Stalls_Percent_5_Bucket_0: 666
Non-critical_ROB_Stalls_Percent_5_Bucket_0: 484646
Critical_ROB_Stalls_Percent_5_Bucket_1: 3435
Non-critical_ROB_Stalls_Percent_5_Bucket_1: 589522
Critical_ROB_Stalls_Percent_5_Bucket_2: 13179
Non-critical_ROB_Stalls_Percent_5_Bucket_2: 426516
Critical_ROB_Stalls_Percent_5_Bucket_3: 19183
Non-critical_ROB_Stalls_Percent_5_Bucket_3: 254531
Critical_ROB_Stalls_Percent_5_Bucket_4: 15934
Non-critical_ROB_Stalls_Percent_5_Bucket_4: 154983
Critical_ROB_Stalls_Percent_5_Bucket_5: 14840
Non-critical_ROB_Stalls_Percent_5_Bucket_5: 139946
Critical_ROB_Stalls_Percent_5_Bucket_6: 218151
Non-critical_ROB_Stalls_Percent_5_Bucket_6: 907279
Critical_ROB_Stalls_Percent_6_Bucket_0: 666
Non-critical_ROB_Stalls_Percent_6_Bucket_0: 484646
Critical_ROB_Stalls_Percent_6_Bucket_1: 3435
Non-critical_ROB_Stalls_Percent_6_Bucket_1: 589522
Critical_ROB_Stalls_Percent_6_Bucket_2: 13179
Non-critical_ROB_Stalls_Percent_6_Bucket_2: 426516
Critical_ROB_Stalls_Percent_6_Bucket_3: 19183
Non-critical_ROB_Stalls_Percent_6_Bucket_3: 254531
Critical_ROB_Stalls_Percent_6_Bucket_4: 15934
Non-critical_ROB_Stalls_Percent_6_Bucket_4: 154983
Critical_ROB_Stalls_Percent_6_Bucket_5: 14840
Non-critical_ROB_Stalls_Percent_6_Bucket_5: 139946
Critical_ROB_Stalls_Percent_6_Bucket_6: 218151
Non-critical_ROB_Stalls_Percent_6_Bucket_6: 907279
Critical_ROB_Stalls_Percent_7_Bucket_0: 666
Non-critical_ROB_Stalls_Percent_7_Bucket_0: 484646
Critical_ROB_Stalls_Percent_7_Bucket_1: 3435
Non-critical_ROB_Stalls_Percent_7_Bucket_1: 589522
Critical_ROB_Stalls_Percent_7_Bucket_2: 13179
Non-critical_ROB_Stalls_Percent_7_Bucket_2: 426516
Critical_ROB_Stalls_Percent_7_Bucket_3: 19183
Non-critical_ROB_Stalls_Percent_7_Bucket_3: 254531
Critical_ROB_Stalls_Percent_7_Bucket_4: 15934
Non-critical_ROB_Stalls_Percent_7_Bucket_4: 154983
Critical_ROB_Stalls_Percent_7_Bucket_5: 14840
Non-critical_ROB_Stalls_Percent_7_Bucket_5: 139946
Critical_ROB_Stalls_Percent_7_Bucket_6: 218151
Non-critical_ROB_Stalls_Percent_7_Bucket_6: 907279
Critical_ROB_Stalls_Percent_8_Bucket_0: 666
Non-critical_ROB_Stalls_Percent_8_Bucket_0: 484646
Critical_ROB_Stalls_Percent_8_Bucket_1: 3435
Non-critical_ROB_Stalls_Percent_8_Bucket_1: 589522
Critical_ROB_Stalls_Percent_8_Bucket_2: 13179
Non-critical_ROB_Stalls_Percent_8_Bucket_2: 426516
Critical_ROB_Stalls_Percent_8_Bucket_3: 19183
Non-critical_ROB_Stalls_Percent_8_Bucket_3: 254531
Critical_ROB_Stalls_Percent_8_Bucket_4: 15934
Non-critical_ROB_Stalls_Percent_8_Bucket_4: 154983
Critical_ROB_Stalls_Percent_8_Bucket_5: 14840
Non-critical_ROB_Stalls_Percent_8_Bucket_5: 139946
Critical_ROB_Stalls_Percent_8_Bucket_6: 218151
Non-critical_ROB_Stalls_Percent_8_Bucket_6: 907279
Average ROB occupancy Load Stall Begin: 186.638
Average ROB occupancy Load Stall End: 195.327
Min ROB occupancy Load Stall Begin: 1
Max ROB occupancy Load Stall Begin: 352
Min ROB occupancy Load Stall End: 1
Max ROB occupancy Load Stall End: 352
Average ROB occupancy Critical Load Stall Begin: -nan
Average ROB occupancy Critical Load Stall End: -nan
Min ROB occupancy Critical Load Stall Begin: 400
Max ROB occupancy Critical Load Stall Begin: 0
Min ROB occupancy Critical Load Stall End: 400
Max ROB occupancy Critical Load Stall End: 0
 ROB Load Stall Begin Bucket Count 0: 688180
 ROB Load Stall End Bucket Count 0: 485312
 ROB Critical Load Stall Begin Bucket Count 0: 0
 ROB Critical Load Stall End Bucket Count 0: 0
 ROB Load Stall Begin Bucket Count 1: 526708
 ROB Load Stall End Bucket Count 1: 592957
 ROB Critical Load Stall Begin Bucket Count 1: 0
 ROB Critical Load Stall End Bucket Count 1: 0
 ROB Load Stall Begin Bucket Count 2: 393361
 ROB Load Stall End Bucket Count 2: 439695
 ROB Critical Load Stall Begin Bucket Count 2: 0
 ROB Critical Load Stall End Bucket Count 2: 0
 ROB Load Stall Begin Bucket Count 3: 228490
 ROB Load Stall End Bucket Count 3: 273714
 ROB Critical Load Stall Begin Bucket Count 3: 0
 ROB Critical Load Stall End Bucket Count 3: 0
 ROB Load Stall Begin Bucket Count 4: 157437
 ROB Load Stall End Bucket Count 4: 170917
 ROB Critical Load Stall Begin Bucket Count 4: 0
 ROB Critical Load Stall End Bucket Count 4: 0
 ROB Load Stall Begin Bucket Count 5: 155496
 ROB Load Stall End Bucket Count 5: 154786
 ROB Critical Load Stall Begin Bucket Count 5: 0
 ROB Critical Load Stall End Bucket Count 5: 0
 ROB Load Stall Begin Bucket Count 6: 1093139
 ROB Load Stall End Bucket Count 6: 1125430
 ROB Critical Load Stall Begin Bucket Count 6: 0
 ROB Critical Load Stall End Bucket Count 6: 0
PIST Tag Read Accesses: 0
PIST Read Accesses: 0
PIST Tag Write Accesses: 0
PIST Write Accesses: 0
Criticality detector called times: 0
Max global_stall_cycles_count: 0
Threshold Modified: 0 times, factor: 0
ITLB TOTAL     ACCESS:   10368045  HIT:    9891240  MISS:     476805  HIT %:    95.4012  MISS %:    4.59879   MPKI: 9.5361
ITLB LOAD TRANSLATION ACCESS:    8480723  HIT:    8470319  MISS:      10404  HIT %:    99.8773  MISS %:   0.122678   MPKI: 0.20808
ITLB TRANSLATION FROM L1D PREFETCHER ACCESS:    1887322  HIT:    1420921  MISS:     466401  HIT %:    75.2877  MISS %:    24.7123   MPKI: 9.32802
ITLB PREFETCH  REQUESTED:          0  ISSUED:          0  USEFUL:     421761  USELESS:      44641
ITLB USEFUL LOAD PREFETCHES:     421761 PREFETCH ISSUED TO LOWER LEVEL:          0  ACCURACY: inf
ITLB TIMELY PREFETCHES:     421761 LATE PREFETCHES: 826 DROPPED PREFETCHES: 0
ITLB PREFETCHES SAME FILL-ORIGIN LEVEL: 0 DIFFERENT FILL-ORIGIN LEVEL: 0
ITLB AVERAGE MISS LATENCY: 75242 cycles
ITLB RQ	ACCESS:   14832355	FORWARD:          0	MERGED:    4407635	TO_CACHE:   10424720

DTLB TOTAL     ACCESS:   10795046  HIT:   10375050  MISS:     419996  HIT %:    96.1094  MISS %:    3.89064   MPKI: 8.39992
DTLB LOAD TRANSLATION ACCESS:   10795046  HIT:   10375050  MISS:     419996  HIT %:    96.1094  MISS %:    3.89064   MPKI: 8.39992
DTLB PREFETCH  REQUESTED:          0  ISSUED:          0  USEFUL:          0  USELESS:          0
DTLB USEFUL LOAD PREFETCHES:          0 PREFETCH ISSUED TO LOWER LEVEL:          0  ACCURACY: -nan
DTLB TIMELY PREFETCHES:          0 LATE PREFETCHES: 0 DROPPED PREFETCHES: 0
DTLB PREFETCHES SAME FILL-ORIGIN LEVEL: 0 DIFFERENT FILL-ORIGIN LEVEL: 0
DTLB AVERAGE MISS LATENCY: 19.5956 cycles
DTLB RQ	ACCESS:   16021207	FORWARD:          0	MERGED:    5143972	TO_CACHE:   10877235

STLB TOTAL     ACCESS:     896801  HIT:     863637  MISS:      33164  HIT %:     96.302  MISS %:    3.69803   MPKI: 0.66328
STLB LOAD TRANSLATION ACCESS:     429574  HIT:     397183  MISS:      32391  HIT %:    92.4597  MISS %:    7.54026   MPKI: 0.64782
STLB TRANSLATION FROM L1D PREFETCHER ACCESS:     467227  HIT:     466454  MISS:        773  HIT %:    99.8346  MISS %:   0.165444   MPKI: 0.01546
STLB PREFETCH  REQUESTED:          0  ISSUED:          0  USEFUL:        487  USELESS:        272
STLB USEFUL LOAD PREFETCHES:        487 PREFETCH ISSUED TO LOWER LEVEL:          0  ACCURACY: inf
STLB TIMELY PREFETCHES:        487 LATE PREFETCHES: 0 DROPPED PREFETCHES: 0
STLB PREFETCHES SAME FILL-ORIGIN LEVEL: 0 DIFFERENT FILL-ORIGIN LEVEL: 0
STLB AVERAGE MISS LATENCY: 140.871 cycles
STLB RQ	ACCESS:     896801	FORWARD:          0	MERGED:          0	TO_CACHE:     896801

STLB Hit, L1D data hit: 0
STLB Hit, L2C data hit: 0
STLB Hit, LLC data hit: 0
STLB Hit, LLC data miss: 0
STLB STLB hints to L2: 0
L1D TOTAL     ACCESS:   13478863  HIT:   11685980  MISS:    1792883  HIT %:    86.6986  MISS %:    13.3014   MPKI: 35.8577
L1D LOAD      ACCESS:    7361327  HIT:    6529706  MISS:     831621  HIT %:    88.7028  MISS %:    11.2972   MPKI: 16.6324
L1D RFO       ACCESS:    6117536  HIT:    5156274  MISS:     961262  HIT %:    84.2868  MISS %:    15.7132   MPKI: 19.2252
L1D PREFETCH  REQUESTED:          0  ISSUED:          0  USEFUL:          0  USELESS:          0
L1D USEFUL LOAD PREFETCHES:          0 PREFETCH ISSUED TO LOWER LEVEL:          0  ACCURACY: -nan
L1D TIMELY PREFETCHES:          0 LATE PREFETCHES: 0 DROPPED PREFETCHES: 0
L1D PREFETCHES SAME FILL-ORIGIN LEVEL: 0 DIFFERENT FILL-ORIGIN LEVEL: 0
L1D AVERAGE MISS LATENCY: 165.588 cycles
L1D RQ	ACCESS:   11032354	FORWARD:          0	MERGED:    3508846	TO_CACHE:    7403664
L1D WQ	ACCESS:    8713551	FORWARD:     119844	MERGED:      96008	TO_CACHE:    8617543

L1D UNIQUE REGIONS ACCESSED: 0
L1D REGIONS CONFLICTS: 0
L1D Cross Page Prefetch Requests: 0
L1D Same Page Prefetch Requests: 0
L1D ROI Sum of L1D PQ occupancy: 0
L1D PREFETCHES PUSHED FROM L2C: 0
L1I TOTAL     ACCESS:   14765216  HIT:   11676788  MISS:    3088428  HIT %:    79.0831  MISS %:    20.9169   MPKI: 61.7686
L1I LOAD      ACCESS:    9894791  HIT:    9873662  MISS:      21129  HIT %:    99.7865  MISS %:   0.213537   MPKI: 0.42258
L1I PREFETCH  ACCESS:    4870425  HIT:    1803126  MISS:    3067299  HIT %:    37.0219  MISS %:    62.9781   MPKI: 61.346
L1I PREFETCH  REQUESTED:    5130833  ISSUED:    5122982  USEFUL:    2585223  USELESS:     482134
L1I USEFUL LOAD PREFETCHES:    2585223 PREFETCH ISSUED TO LOWER LEVEL:    3075516  ACCURACY: 84.0582
L1I TIMELY PREFETCHES:    2585223 LATE PREFETCHES: 8048 DROPPED PREFETCHES: 0
L1I PREFETCHES SAME FILL-ORIGIN LEVEL: 3075516 DIFFERENT FILL-ORIGIN LEVEL: 0
L1I AVERAGE MISS LATENCY: 179271 cycles
L1I RQ	ACCESS:   14174302	FORWARD:          0	MERGED:    4275485	TO_CACHE:    9898817
L1I PQ	ACCESS:    5122982	FORWARD:          0	MERGED:     189444	TO_CACHE:    4933538

BTB TOTAL     ACCESS:    5333119  HIT:    5067879  MISS:     265240  HIT %:    95.0266  MISS %:    4.97345   MPKI: 5.3048
BTB BRANCH_DIRECT_JUMP	ACCESS:     458219  HIT:     456490  MISS:       1729
BTB BRANCH_INDIRECT	ACCESS:      49088  HIT:      48920  MISS:        168
BTB BRANCH_CONDITIONAL	ACCESS:    3001358  HIT:    2995715  MISS:       5643
BTB BRANCH_DIRECT_CALL	ACCESS:     745129  HIT:     741537  MISS:       3592
BTB BRANCH_INDIRECT_CALL	ACCESS:     167106  HIT:     138209  MISS:      28897
BTB BRANCH_RETURN	ACCESS:     912219  HIT:     687008  MISS:     225211
BTB BRANCH_OTHER ACCESS:          0  HIT:          0  MISS:          0

L2C TOTAL     ACCESS:    6553373  HIT:    4746299  MISS:    1807074  HIT %:    72.4253  MISS %:    27.5747   MPKI: 36.1415
L2C LOAD      ACCESS:     844690  HIT:     386612  MISS:     458078  HIT %:    45.7697  MISS %:    54.2303   MPKI: 9.16156
L2C DATA LOAD MPKI: 9.06532
L2C INSTRUCTION LOAD MPKI: 0.09624
L2C RFO       ACCESS:     961262  HIT:      34260  MISS:     927002  HIT %:    3.56406  MISS %:    96.4359   MPKI: 18.54
L2C PREFETCH  ACCESS:    3560963  HIT:    3214332  MISS:     346631  HIT %:    90.2658  MISS %:    9.73419   MPKI: 6.93262
L2C DATA PREFETCH MPKI: 3.72424
L2C INSTRUCTION PREFETCH MPKI: 3.20838
L2C WRITEBACK ACCESS:    1149718  HIT:    1094673  MISS:      55045  HIT %:    95.2123  MISS %:     4.7877   MPKI: 1.1009
L2C LOAD TRANSLATION ACCESS:      35598  HIT:      16136  MISS:      19462  HIT %:    45.3284  MISS %:    54.6716   MPKI: 0.38924
L2C TRANSLATION FROM L1D PREFETCHER ACCESS:       1142  HIT:        286  MISS:        856  HIT %:    25.0438  MISS %:    74.9562   MPKI: 0.01712
L2C PREFETCH  REQUESTED:    2380900  ISSUED:    2380894  USEFUL:     186944  USELESS:     159894
L2C USEFUL LOAD PREFETCHES:     186944 PREFETCH ISSUED TO LOWER LEVEL:    2236926  ACCURACY: 8.35718
L2C TIMELY PREFETCHES:     186944 LATE PREFETCHES: 369 DROPPED PREFETCHES: 0
L2C PREFETCHES SAME FILL-ORIGIN LEVEL: 186581 DIFFERENT FILL-ORIGIN LEVEL: 1889926
L2C AVERAGE MISS LATENCY: 159.465 cycles
L2C RQ	ACCESS:    1842704	FORWARD:          0	MERGED:          0	TO_CACHE:    1842692
L2C WQ	ACCESS:    1149718	FORWARD:         12	MERGED:          0	TO_CACHE:    1149718
L2C PQ	ACCESS:    5456241	FORWARD:          0	MERGED:       1303	TO_CACHE:    5454938

L2C Instructions Evicting Data 148388
L2C Translations Evicting Data 18527
L2C Data Evicting Data 1405648
L2C Instructions Evicting Instructions 15182
L2C Translations Evicting Instructions 1552
L2C Data Evicting Instructions 142830
L2C Instructions Evicting Translations 1661
L2C Translations Evicting Translations 239
L2C Data Evicting Translations 18002
L2C Dense regions hint from L2: 0
PSCL5 TOTAL     ACCESS:      33164  HIT:      33164  MISS:          0  HIT %:        100  MISS %:          0   MPKI: 0
PSCL5 LOAD TRANSLATION ACCESS:      32391  HIT:      32391  MISS:          0  HIT %:        100  MISS %:          0   MPKI: 0
PSCL5 TRANSLATION FROM L1D PREFETCHER ACCESS:        773  HIT:        773  MISS:          0  HIT %:        100  MISS %:          0   MPKI: 0
PSCL5 PREFETCH  REQUESTED:          0  ISSUED:          0  USEFUL:          0  USELESS:          0
PSCL5 USEFUL LOAD PREFETCHES:          0 PREFETCH ISSUED TO LOWER LEVEL:          0  ACCURACY: -nan
PSCL5 TIMELY PREFETCHES:          0 LATE PREFETCHES: 0 DROPPED PREFETCHES: 0
PSCL5 PREFETCHES SAME FILL-ORIGIN LEVEL: 0 DIFFERENT FILL-ORIGIN LEVEL: 0

PSCL4 TOTAL     ACCESS:      32548  HIT:      32444  MISS:        104  HIT %:    99.6805  MISS %:   0.319528   MPKI: 0.00208
PSCL4 LOAD TRANSLATION ACCESS:      31811  HIT:      31707  MISS:        104  HIT %:    99.6731  MISS %:   0.326931   MPKI: 0.00208
PSCL4 TRANSLATION FROM L1D PREFETCHER ACCESS:        737  HIT:        737  MISS:          0  HIT %:        100  MISS %:          0   MPKI: 0
PSCL4 PREFETCH  REQUESTED:          0  ISSUED:          0  USEFUL:          0  USELESS:          0
PSCL4 USEFUL LOAD PREFETCHES:          0 PREFETCH ISSUED TO LOWER LEVEL:          0  ACCURACY: -nan
PSCL4 TIMELY PREFETCHES:          0 LATE PREFETCHES: 0 DROPPED PREFETCHES: 0
PSCL4 PREFETCHES SAME FILL-ORIGIN LEVEL: 0 DIFFERENT FILL-ORIGIN LEVEL: 0

PSCL3 TOTAL     ACCESS:      32871  HIT:      32767  MISS:        104  HIT %:    99.6836  MISS %:   0.316388   MPKI: 0.00208
PSCL3 LOAD TRANSLATION ACCESS:      32134  HIT:      32030  MISS:        104  HIT %:    99.6764  MISS %:   0.323645   MPKI: 0.00208
PSCL3 TRANSLATION FROM L1D PREFETCHER ACCESS:        737  HIT:        737  MISS:          0  HIT %:        100  MISS %:          0   MPKI: 0
PSCL3 PREFETCH  REQUESTED:          0  ISSUED:          0  USEFUL:          0  USELESS:          0
PSCL3 USEFUL LOAD PREFETCHES:          0 PREFETCH ISSUED TO LOWER LEVEL:          0  ACCURACY: -nan
PSCL3 TIMELY PREFETCHES:          0 LATE PREFETCHES: 0 DROPPED PREFETCHES: 0
PSCL3 PREFETCHES SAME FILL-ORIGIN LEVEL: 0 DIFFERENT FILL-ORIGIN LEVEL: 0

PSCL2 TOTAL     ACCESS:      33164  HIT:      29773  MISS:       3391  HIT %:    89.7751  MISS %:    10.2249   MPKI: 0.06782
PSCL2 LOAD TRANSLATION ACCESS:      32690  HIT:      29299  MISS:       3391  HIT %:    89.6268  MISS %:    10.3732   MPKI: 0.06782
PSCL2 TRANSLATION FROM L1D PREFETCHER ACCESS:        474  HIT:        474  MISS:          0  HIT %:        100  MISS %:          0   MPKI: 0
PSCL2 PREFETCH  REQUESTED:          0  ISSUED:          0  USEFUL:          0  USELESS:          0
PSCL2 USEFUL LOAD PREFETCHES:          0 PREFETCH ISSUED TO LOWER LEVEL:          0  ACCURACY: -nan
PSCL2 TIMELY PREFETCHES:          0 LATE PREFETCHES: 0 DROPPED PREFETCHES: 0
PSCL2 PREFETCHES SAME FILL-ORIGIN LEVEL: 0 DIFFERENT FILL-ORIGIN LEVEL: 0

LLC TOTAL     ACCESS:    4450950  HIT:    2510520  MISS:    1940430  HIT %:    56.4041  MISS %:    43.5959   MPKI: 38.8086
LLC LOAD      ACCESS:     457705  HIT:     342358  MISS:     115347  HIT %:    74.7988  MISS %:    25.2012   MPKI: 2.30694
LLC RFO       ACCESS:     927001  HIT:     148354  MISS:     778647  HIT %:    16.0037  MISS %:    83.9963   MPKI: 15.5729
LLC PREFETCH  ACCESS:    1968537  HIT:    1730280  MISS:     238257  HIT %:    87.8967  MISS %:    12.1033   MPKI: 4.76514
LLC WRITEBACK ACCESS:    1077389  HIT:     279689  MISS:     797700  HIT %:    25.9599  MISS %:    74.0401   MPKI: 15.954
LLC LOAD TRANSLATION ACCESS:      19462  HIT:       9573  MISS:       9889  HIT %:    49.1882  MISS %:    50.8118   MPKI: 0.19778
LLC TRANSLATION FROM L1D PREFETCHER ACCESS:        856  HIT:        266  MISS:        590  HIT %:    31.0748  MISS %:    68.9252   MPKI: 0.0118
LLC PREFETCH  REQUESTED:          0  ISSUED:          0  USEFUL:      83615  USELESS:     148357
LLC USEFUL LOAD PREFETCHES:      83615 PREFETCH ISSUED TO LOWER LEVEL:     238996  ACCURACY: 34.9859
LLC TIMELY PREFETCHES:      83615 LATE PREFETCHES: 739 DROPPED PREFETCHES: 0
LLC PREFETCHES SAME FILL-ORIGIN LEVEL: 218376 DIFFERENT FILL-ORIGIN LEVEL: 0
LLC AVERAGE MISS LATENCY: 141.184 cycles
LLC RQ	ACCESS:    1405029	FORWARD:          0	MERGED:          0	TO_CACHE:    1405024
LLC WQ	ACCESS:    1077389	FORWARD:          5	MERGED:          0	TO_CACHE:    1077389
LLC PQ	ACCESS:    2236926	FORWARD:          0	MERGED:         11	TO_CACHE:    2236915

LLC Dense regions hint to LLC: 0

RAW hits: 1372518
Loads Generated: 12404873
Loads sent to L1D: 11032354
Stores Generated: 8713494
Stores sent to L1D: 8713551
Major fault: 0 Minor fault: 22230
Allocated PAGES: 22230
I-Shadow cache 408 bytes
Touched + WorthPF tables 6144 bytes 
MMA filter 174 bytes 
FNL filter 272 bytes 
TOTAL PREFETCHER STORAGE SIZE: 25174 bytes
CPU 0 L1I next line prefetcher final stats
 All Calls: 7803038
 Critical Calls: 441632
------------------
Depth Distribution
------------------
depth 0: 0
depth 1: 354550
depth 2: 320073
depth 3: 309111
depth 4: 302848
depth 5: 293420
depth 6: 278747
depth 7: 247422
depth 8: 176541
depth 9: 106755
depth 10: 19122
depth 11: 2594
depth 12: 73
depth 13: 0
depth 14: 0
depth 15: 0
depth 16: 0
depth 17: 0
depth 18: 0
depth 19: 0
depth 20: 0
depth 21: 0
depth 22: 0
depth 23: 0
depth 24: 0
depth 25: 0
depth 26: 0
depth 27: 0
depth 28: 0
depth 29: 0
Total: 2411256
-----------------------------
-----------------------------
	Captured at Filter
-----------------------------
depth 0: 0
depth 1: 668
depth 2: 661
depth 3: 786
depth 4: 644
depth 5: 716
depth 6: 633
depth 7: 608
depth 8: 548
depth 9: 386
depth 10: 65
depth 11: 11
depth 12: 1
depth 13: 0
depth 14: 0
depth 15: 0
depth 16: 0
depth 17: 0
depth 18: 0
depth 19: 0
depth 20: 0
depth 21: 0
depth 22: 0
depth 23: 0
depth 24: 0
depth 25: 0
depth 26: 0
depth 27: 0
depth 28: 0
depth 29: 0
-----------------------------
-----------------------------
		Lost at Page
-----------------------------
depth 0: 0
depth 1: 4957
depth 2: 8161
depth 3: 11997
depth 4: 15920
depth 5: 20029
depth 6: 23928
depth 7: 27014
depth 8: 23602
depth 9: 16935
depth 10: 3645
depth 11: 567
depth 12: 18
depth 13: 0
depth 14: 0
depth 15: 0
depth 16: 0
depth 17: 0
depth 18: 0
depth 19: 0
depth 20: 0
depth 21: 0
depth 22: 0
depth 23: 0
depth 24: 0
depth 25: 0
depth 26: 0
depth 27: 0
depth 28: 0
depth 29: 0
-----------------------------
-----------------------------
	Lost due to PQ Size
-----------------------------
6
-----------------------------
ST read accesses: 364929
ST write accesses: 18586
PT read accesses: 14792703
PT write accesses: 521723
FILTER read accesses: 4577205
FILTER write accesses: 2233336
GHR read accesses: 944654
GHR write accesses: 156338
GHR counter read accesses: 12466738
GHR counter write accesses: 813649
ST tag read accesses: 156204133
ST tag write accesses: 7397427

DRAM Statistics
 CHANNEL 0
 RQ ROW_BUFFER_HIT:     422581  ROW_BUFFER_MISS:     720076
 DBUS_CONGESTED:        492
 WQ ROW_BUFFER_HIT:     205700  ROW_BUFFER_MISS:     646106  FULL:      17375

 AVG_CONGESTED_CYCLE: 3
 All warmup complete: 2
Channel 0 Bank busy for read cycles: 0
Channel 0 Bank busy for write cycles: 0
Channel 0
Rank 0
0banks busy for read cycles: 24425076
0banks busy for write cycles: 62945
1banks busy for read cycles: 19283960
1banks busy for write cycles: 9416285
2banks busy for read cycles: 9892574
2banks busy for write cycles: 4626011
3banks busy for read cycles: 4942831
3banks busy for write cycles: 2557110
4banks busy for read cycles: 3222961
4banks busy for write cycles: 1865890
5banks busy for read cycles: 1444420
5banks busy for write cycles: 1559975
6banks busy for read cycles: 1132915
6banks busy for write cycles: 1449019
7banks busy for read cycles: 1424451
7banks busy for write cycles: 2103729
8banks busy for read cycles: 5158413
8banks busy for write cycles: 10826270

CPU 0 Branch Prediction Accuracy: 99.712% MPKI: 0.47638 Average ROB Occupancy at Mispredict: 97.6595
Branch types
NOT_BRANCH: 41729379 83.4588%
BRANCH_DIRECT_JUMP: 458219 0.916438%
BRANCH_INDIRECT: 49088 0.098176%
BRANCH_CONDITIONAL: 5938510 11.877%
BRANCH_DIRECT_CALL: 745129 1.49026%
BRANCH_INDIRECT_CALL: 167106 0.334212%
BRANCH_RETURN: 912219 1.82444%
BRANCH_OTHER: 0 0%

DRAM PAGES: 1048576
Allocated PAGES: 22230
