Initialize SIGNATURE TABLE
ST_SET: 1
ST_WAY: 256
ST_TAG_BIT: 16
ST_TAG_MASK: ffff

Initialize PATTERN TABLE
PT_SET: 512
PT_WAY: 4
SIG_DELTA_BIT: 7
C_SIG_BIT: 4
C_DELTA_BIT: 4

Initialize PREFETCH FILTER
FILTER_SET: 1024

*** ChampSim Multicore Out-of-Order Simulator ***

Warmup Instructions: 50000000
Simulation Instructions: 50000000
Number of CPUs: 1
LLC sets: 2048
LLC ways: 16
Off-chip DRAM Size: 4096 MB Channels: 1 Width: 64-bit Data Rate: 6400 MT/s
CPU 0 runs ../IPC-traces//server_019.champsimtrace.xz
.xz
NUM_OF_IPS_IN_CRITICAL_IP_TRAINING: 64
NUM_OF_CRITICAL_IP_TRAINING_TABLE_WAYS: 2
NUM_OF_CRITICAL_IP_TRAINING_TABLE_SETS: 32
WOBBLY_CRITICAL_IP_CACHE_SETS: 32
WOBBLY_CRITICAL_IP_CACHE_WAYS: 4
BTB has LRU replacement policy
ITLB has LRU replacement policy
DTLB has LRU replacement policy
STLB has LRU replacement policy
CPU 0 L1I next line prefetcher
L1I has LRU replacement policy
L1D has LRU replacement policy
Initialize SRRIP state for L2C
Initialize DRRIP state for LLC
Heartbeat CPU 0 instructions: 10000002 cycles: 3295954 heartbeat IPC: 3.03402 cumulative IPC: 3.03402 (Simulation time: 0 hr 3 min 34 sec) 
Heartbeat CPU 0 instructions: 20000001 cycles: 6592065 heartbeat IPC: 3.03388 cumulative IPC: 3.03395 (Simulation time: 0 hr 6 min 29 sec) 
Heartbeat CPU 0 instructions: 30000001 cycles: 9891393 heartbeat IPC: 3.03092 cumulative IPC: 3.03294 (Simulation time: 0 hr 8 min 59 sec) 
Heartbeat CPU 0 instructions: 40000002 cycles: 13198895 heartbeat IPC: 3.02343 cumulative IPC: 3.03056 (Simulation time: 0 hr 11 min 9 sec) 
Heartbeat CPU 0 instructions: 50000001 cycles: 16496813 heartbeat IPC: 3.03222 cumulative IPC: 3.03089 (Simulation time: 0 hr 13 min 10 sec) 

Warmup complete CPU 0 instructions: 50000001 cycles: 16496813 (Simulation time: 0 hr 13 min 10 sec) 

Heartbeat CPU 0 instructions: 60000003 cycles: 40330038 heartbeat IPC: 0.419582 cumulative IPC: 0.419582 (Simulation time: 0 hr 16 min 48 sec) 
Heartbeat CPU 0 instructions: 70000002 cycles: 67428929 heartbeat IPC: 0.369019 cumulative IPC: 0.39268 (Simulation time: 0 hr 20 min 10 sec) 
Heartbeat CPU 0 instructions: 80000001 cycles: 93681219 heartbeat IPC: 0.380919 cumulative IPC: 0.38868 (Simulation time: 0 hr 23 min 21 sec) 
Heartbeat CPU 0 instructions: 90000001 cycles: 116967203 heartbeat IPC: 0.429443 cumulative IPC: 0.398127 (Simulation time: 0 hr 28 min 36 sec) 
Heartbeat CPU 0 instructions: 100000002 cycles: 139720735 heartbeat IPC: 0.439492 cumulative IPC: 0.405765 (Simulation time: 0 hr 33 min 30 sec) 
Finished CPU 0 instructions: 50000001 cycles: 123223922 cumulative IPC: 0.405765 (Simulation time: 0 hr 33 min 30 sec) 

ChampSim completed all CPUs

Region of Interest Statistics

CPU 0 cumulative IPC: 0.405765 instructions: 50000001 cycles: 123223922

CPU 0 Average Load ROB stall cycles: 3.67559e+07
CPU 0 Fraction of times ROB stalled by Loads: 46.1945
CPU 0 Percentage of Load stall cycles in Total stall cycles: 2.43372e+08
Issued all: 53849125
Issued LT all: 48474812
rob_not_full_when_issued_lt_all: 17110875
Issued LT one: 42815640
rob_not_full_when_issued_lt_one: 13226071
 Total stall cycles: 104741388
 Total load stall cycles: 254911350492897
CPU 0 NUM of IPS identified critical: 0
CPU 0 Num of Load IPs stalling ROB: 5488
Threshold modification factor: 0
Max PIST entries: 64
Min PIST entries: 0
Avg PIST entries: 30.21
Trouble in retire width: 0.82425
MaC = Marked as critical.
lt_50_percent_before_Mac: 0
gt_90_percent_before_Mac: 0
gt_75_percent_before_Mac: 0
gt_50_percent_before_Mac: 0
stall_proportion_bin_same_before_after: 0
stall_proportion_bin_lower_before_after: 0
stall_proportion_bin_upper_before_after: 0
average_stall_proportion_before: -nan
average_stall_proportion_after: -nan
Critical IP stalls, total frequency: 0
Non-critical IP stalls, total frequency: 3203703
Total Freq all stalling IPs: 3203703
stat_90_percent_critical_ip_stalls_freq: 2884213
stat_90_percent_non_critical_ip_stalls_freq: 319490
Critical_IP_ROB_Stalls_Bucket_0: 0
Non-critical_IP_ROB_Stalls_Bucket_0: 463917
Critical_IP_ROB_Stalls_Bucket_1: 0
Non-critical_IP_ROB_Stalls_Bucket_1: 561065
Critical_IP_ROB_Stalls_Bucket_2: 0
Non-critical_IP_ROB_Stalls_Bucket_2: 452260
Critical_IP_ROB_Stalls_Bucket_3: 0
Non-critical_IP_ROB_Stalls_Bucket_3: 329831
Critical_IP_ROB_Stalls_Bucket_4: 0
Non-critical_IP_ROB_Stalls_Bucket_4: 186032
Critical_IP_ROB_Stalls_Bucket_5: 0
Non-critical_IP_ROB_Stalls_Bucket_5: 171440
Critical_IP_ROB_Stalls_Bucket_6: 0
Non-critical_IP_ROB_Stalls_Bucket_6: 1039158
0 => IPs accounting for >50 percent of stalls, 1 => 55, 2 => 60, 3 => 65 and so on till 90.
percent50: 50.4471 num IPs:  8
percent55: 55.1771 num IPs: 13
percent60: 60.0963 num IPs: 30
percent65: 65.0288 num IPs: 63
percent70: 70.047 num IPs: 119
percent75: 75.0508 num IPs: 196
percent80: 80.0181 num IPs: 274
percent85: 85.0154 num IPs: 359
percent90: 90.0274 num IPs: 473
Critical_ROB_Stalls_Percent_0_Bucket_0: 37265
Non-critical_ROB_Stalls_Percent_0_Bucket_0: 426652
Critical_ROB_Stalls_Percent_0_Bucket_1: 96696
Non-critical_ROB_Stalls_Percent_0_Bucket_1: 464369
Critical_ROB_Stalls_Percent_0_Bucket_2: 184918
Non-critical_ROB_Stalls_Percent_0_Bucket_2: 267342
Critical_ROB_Stalls_Percent_0_Bucket_3: 183546
Non-critical_ROB_Stalls_Percent_0_Bucket_3: 146285
Critical_ROB_Stalls_Percent_0_Bucket_4: 122277
Non-critical_ROB_Stalls_Percent_0_Bucket_4: 63755
Critical_ROB_Stalls_Percent_0_Bucket_5: 111409
Non-critical_ROB_Stalls_Percent_0_Bucket_5: 60031
Critical_ROB_Stalls_Percent_0_Bucket_6: 880063
Non-critical_ROB_Stalls_Percent_0_Bucket_6: 159095
Critical_ROB_Stalls_Percent_1_Bucket_0: 50016
Non-critical_ROB_Stalls_Percent_1_Bucket_0: 413901
Critical_ROB_Stalls_Percent_1_Bucket_1: 141803
Non-critical_ROB_Stalls_Percent_1_Bucket_1: 419262
Critical_ROB_Stalls_Percent_1_Bucket_2: 198450
Non-critical_ROB_Stalls_Percent_1_Bucket_2: 253810
Critical_ROB_Stalls_Percent_1_Bucket_3: 217123
Non-critical_ROB_Stalls_Percent_1_Bucket_3: 112708
Critical_ROB_Stalls_Percent_1_Bucket_4: 129225
Non-critical_ROB_Stalls_Percent_1_Bucket_4: 56807
Critical_ROB_Stalls_Percent_1_Bucket_5: 122866
Non-critical_ROB_Stalls_Percent_1_Bucket_5: 48574
Critical_ROB_Stalls_Percent_1_Bucket_6: 908227
Non-critical_ROB_Stalls_Percent_1_Bucket_6: 130931
Critical_ROB_Stalls_Percent_2_Bucket_0: 112066
Non-critical_ROB_Stalls_Percent_2_Bucket_0: 351851
Critical_ROB_Stalls_Percent_2_Bucket_1: 195201
Non-critical_ROB_Stalls_Percent_2_Bucket_1: 365864
Critical_ROB_Stalls_Percent_2_Bucket_2: 217976
Non-critical_ROB_Stalls_Percent_2_Bucket_2: 234284
Critical_ROB_Stalls_Percent_2_Bucket_3: 227510
Non-critical_ROB_Stalls_Percent_2_Bucket_3: 102321
Critical_ROB_Stalls_Percent_2_Bucket_4: 133994
Non-critical_ROB_Stalls_Percent_2_Bucket_4: 52038
Critical_ROB_Stalls_Percent_2_Bucket_5: 126338
Non-critical_ROB_Stalls_Percent_2_Bucket_5: 45102
Critical_ROB_Stalls_Percent_2_Bucket_6: 912221
Non-critical_ROB_Stalls_Percent_2_Bucket_6: 126937
Critical_ROB_Stalls_Percent_3_Bucket_0: 166322
Non-critical_ROB_Stalls_Percent_3_Bucket_0: 297595
Critical_ROB_Stalls_Percent_3_Bucket_1: 229866
Non-critical_ROB_Stalls_Percent_3_Bucket_1: 331199
Critical_ROB_Stalls_Percent_3_Bucket_2: 242574
Non-critical_ROB_Stalls_Percent_3_Bucket_2: 209686
Critical_ROB_Stalls_Percent_3_Bucket_3: 235952
Non-critical_ROB_Stalls_Percent_3_Bucket_3: 93879
Critical_ROB_Stalls_Percent_3_Bucket_4: 139627
Non-critical_ROB_Stalls_Percent_3_Bucket_4: 46405
Critical_ROB_Stalls_Percent_3_Bucket_5: 132906
Non-critical_ROB_Stalls_Percent_3_Bucket_5: 38534
Critical_ROB_Stalls_Percent_3_Bucket_6: 936083
Non-critical_ROB_Stalls_Percent_3_Bucket_6: 103075
Critical_ROB_Stalls_Percent_4_Bucket_0: 208406
Non-critical_ROB_Stalls_Percent_4_Bucket_0: 255511
Critical_ROB_Stalls_Percent_4_Bucket_1: 270792
Non-critical_ROB_Stalls_Percent_4_Bucket_1: 290273
Critical_ROB_Stalls_Percent_4_Bucket_2: 275505
Non-critical_ROB_Stalls_Percent_4_Bucket_2: 176755
Critical_ROB_Stalls_Percent_4_Bucket_3: 245636
Non-critical_ROB_Stalls_Percent_4_Bucket_3: 84195
Critical_ROB_Stalls_Percent_4_Bucket_4: 144814
Non-critical_ROB_Stalls_Percent_4_Bucket_4: 41218
Critical_ROB_Stalls_Percent_4_Bucket_5: 140327
Non-critical_ROB_Stalls_Percent_4_Bucket_5: 31113
Critical_ROB_Stalls_Percent_4_Bucket_6: 958618
Non-critical_ROB_Stalls_Percent_4_Bucket_6: 80540
Critical_ROB_Stalls_Percent_5_Bucket_0: 230107
Non-critical_ROB_Stalls_Percent_5_Bucket_0: 233810
Critical_ROB_Stalls_Percent_5_Bucket_1: 330408
Non-critical_ROB_Stalls_Percent_5_Bucket_1: 230657
Critical_ROB_Stalls_Percent_5_Bucket_2: 302400
Non-critical_ROB_Stalls_Percent_5_Bucket_2: 149860
Critical_ROB_Stalls_Percent_5_Bucket_3: 270266
Non-critical_ROB_Stalls_Percent_5_Bucket_3: 59565
Critical_ROB_Stalls_Percent_5_Bucket_4: 161491
Non-critical_ROB_Stalls_Percent_5_Bucket_4: 24541
Critical_ROB_Stalls_Percent_5_Bucket_5: 146188
Non-critical_ROB_Stalls_Percent_5_Bucket_5: 25252
Critical_ROB_Stalls_Percent_5_Bucket_6: 963549
Non-critical_ROB_Stalls_Percent_5_Bucket_6: 75609
Critical_ROB_Stalls_Percent_6_Bucket_0: 268199
Non-critical_ROB_Stalls_Percent_6_Bucket_0: 195718
Critical_ROB_Stalls_Percent_6_Bucket_1: 384621
Non-critical_ROB_Stalls_Percent_6_Bucket_1: 176444
Critical_ROB_Stalls_Percent_6_Bucket_2: 339125
Non-critical_ROB_Stalls_Percent_6_Bucket_2: 113135
Critical_ROB_Stalls_Percent_6_Bucket_3: 279458
Non-critical_ROB_Stalls_Percent_6_Bucket_3: 50373
Critical_ROB_Stalls_Percent_6_Bucket_4: 166786
Non-critical_ROB_Stalls_Percent_6_Bucket_4: 19246
Critical_ROB_Stalls_Percent_6_Bucket_5: 150834
Non-critical_ROB_Stalls_Percent_6_Bucket_5: 20606
Critical_ROB_Stalls_Percent_6_Bucket_6: 974524
Non-critical_ROB_Stalls_Percent_6_Bucket_6: 64634
Critical_ROB_Stalls_Percent_7_Bucket_0: 311581
Non-critical_ROB_Stalls_Percent_7_Bucket_0: 152336
Critical_ROB_Stalls_Percent_7_Bucket_1: 429748
Non-critical_ROB_Stalls_Percent_7_Bucket_1: 131317
Critical_ROB_Stalls_Percent_7_Bucket_2: 379052
Non-critical_ROB_Stalls_Percent_7_Bucket_2: 73208
Critical_ROB_Stalls_Percent_7_Bucket_3: 292141
Non-critical_ROB_Stalls_Percent_7_Bucket_3: 37690
Critical_ROB_Stalls_Percent_7_Bucket_4: 169478
Non-critical_ROB_Stalls_Percent_7_Bucket_4: 16554
Critical_ROB_Stalls_Percent_7_Bucket_5: 155171
Non-critical_ROB_Stalls_Percent_7_Bucket_5: 16269
Critical_ROB_Stalls_Percent_7_Bucket_6: 986475
Non-critical_ROB_Stalls_Percent_7_Bucket_6: 52683
Critical_ROB_Stalls_Percent_8_Bucket_0: 366476
Non-critical_ROB_Stalls_Percent_8_Bucket_0: 97441
Critical_ROB_Stalls_Percent_8_Bucket_1: 476207
Non-critical_ROB_Stalls_Percent_8_Bucket_1: 84858
Critical_ROB_Stalls_Percent_8_Bucket_2: 400910
Non-critical_ROB_Stalls_Percent_8_Bucket_2: 51350
Critical_ROB_Stalls_Percent_8_Bucket_3: 302143
Non-critical_ROB_Stalls_Percent_8_Bucket_3: 27688
Critical_ROB_Stalls_Percent_8_Bucket_4: 174956
Non-critical_ROB_Stalls_Percent_8_Bucket_4: 11076
Critical_ROB_Stalls_Percent_8_Bucket_5: 159313
Non-critical_ROB_Stalls_Percent_8_Bucket_5: 12127
Critical_ROB_Stalls_Percent_8_Bucket_6: 1004208
Non-critical_ROB_Stalls_Percent_8_Bucket_6: 34950
Average ROB occupancy Load Stall Begin: 184.135
Average ROB occupancy Load Stall End: 193.534
Min ROB occupancy Load Stall Begin: 1
Max ROB occupancy Load Stall Begin: 352
Min ROB occupancy Load Stall End: 1
Max ROB occupancy Load Stall End: 352
Average ROB occupancy Critical Load Stall Begin: -nan
Average ROB occupancy Critical Load Stall End: -nan
Min ROB occupancy Critical Load Stall Begin: 400
Max ROB occupancy Critical Load Stall Begin: 0
Min ROB occupancy Critical Load Stall End: 400
Max ROB occupancy Critical Load Stall End: 0
 ROB Load Stall Begin Bucket Count 0: 651325
 ROB Load Stall End Bucket Count 0: 463917
 ROB Critical Load Stall Begin Bucket Count 0: 0
 ROB Critical Load Stall End Bucket Count 0: 0
 ROB Load Stall Begin Bucket Count 1: 517957
 ROB Load Stall End Bucket Count 1: 561065
 ROB Critical Load Stall Begin Bucket Count 1: 0
 ROB Critical Load Stall End Bucket Count 1: 0
 ROB Load Stall Begin Bucket Count 2: 415102
 ROB Load Stall End Bucket Count 2: 452260
 ROB Critical Load Stall Begin Bucket Count 2: 0
 ROB Critical Load Stall End Bucket Count 2: 0
 ROB Load Stall Begin Bucket Count 3: 276058
 ROB Load Stall End Bucket Count 3: 329831
 ROB Critical Load Stall Begin Bucket Count 3: 0
 ROB Critical Load Stall End Bucket Count 3: 0
 ROB Load Stall Begin Bucket Count 4: 172309
 ROB Load Stall End Bucket Count 4: 186032
 ROB Critical Load Stall Begin Bucket Count 4: 0
 ROB Critical Load Stall End Bucket Count 4: 0
 ROB Load Stall Begin Bucket Count 5: 169666
 ROB Load Stall End Bucket Count 5: 171440
 ROB Critical Load Stall Begin Bucket Count 5: 0
 ROB Critical Load Stall End Bucket Count 5: 0
 ROB Load Stall Begin Bucket Count 6: 1001286
 ROB Load Stall End Bucket Count 6: 1039158
 ROB Critical Load Stall Begin Bucket Count 6: 0
 ROB Critical Load Stall End Bucket Count 6: 0
PIST Tag Read Accesses: 2179016
PIST Read Accesses: 1089508
PIST Tag Write Accesses: 2179016
PIST Write Accesses: 1089508
Criticality detector called times: 1534486
Max global_stall_cycles_count: 3845141
Threshold Modified: 0 times, factor: 0
Sturdy critical IP cache stats: 
 Unused entries: 0
CIC Tag Read Accesses: 0
CIC Read Accesses: 0
CIC Tag Write Accesses: 0
CIC Write Accesses: 0
Wobbly critical IP cache stats: 
 Unused entries: 112
CIC Tag Read Accesses: 169923302
CIC Read Accesses: 0
CIC Tag Write Accesses: 86415
CIC Write Accesses: 0
ITLB TOTAL     ACCESS:   10104226  HIT:    9690950  MISS:     413276  HIT %:    95.9099  MISS %:    4.09013   MPKI: 8.26552
ITLB LOAD TRANSLATION ACCESS:    8374139  HIT:    8361741  MISS:      12398  HIT %:    99.8519  MISS %:   0.148051   MPKI: 0.24796
ITLB TRANSLATION FROM L1D PREFETCHER ACCESS:    1730087  HIT:    1329209  MISS:     400878  HIT %:     76.829  MISS %:     23.171   MPKI: 8.01756
ITLB PREFETCH  REQUESTED:          0  ISSUED:          0  USEFUL:     364588  USELESS:      36287
ITLB USEFUL LOAD PREFETCHES:     364588 PREFETCH ISSUED TO LOWER LEVEL:          0  ACCURACY: inf
ITLB TIMELY PREFETCHES:     364588 LATE PREFETCHES: 313 DROPPED PREFETCHES: 90
ITLB PREFETCHES SAME FILL-ORIGIN LEVEL: 0 DIFFERENT FILL-ORIGIN LEVEL: 0
ITLB AVERAGE MISS LATENCY: 57617.5 cycles
ITLB RQ	ACCESS:   14223352	FORWARD:          0	MERGED:    4076114	TO_CACHE:   10147238

DTLB TOTAL     ACCESS:   10532107  HIT:   10089706  MISS:     442401  HIT %:    95.7995  MISS %:     4.2005   MPKI: 8.84802
DTLB LOAD TRANSLATION ACCESS:   10532107  HIT:   10089706  MISS:     442401  HIT %:    95.7995  MISS %:     4.2005   MPKI: 8.84802
DTLB PREFETCH  REQUESTED:          0  ISSUED:          0  USEFUL:          0  USELESS:          0
DTLB USEFUL LOAD PREFETCHES:          0 PREFETCH ISSUED TO LOWER LEVEL:          0  ACCURACY: -nan
DTLB TIMELY PREFETCHES:          0 LATE PREFETCHES: 0 DROPPED PREFETCHES: 0
DTLB PREFETCHES SAME FILL-ORIGIN LEVEL: 0 DIFFERENT FILL-ORIGIN LEVEL: 0
DTLB AVERAGE MISS LATENCY: 28.5575 cycles
DTLB RQ	ACCESS:   15296920	FORWARD:          0	MERGED:    4685059	TO_CACHE:   10611861

STLB TOTAL     ACCESS:     855677  HIT:     789622  MISS:      66055  HIT %:    92.2804  MISS %:    7.71962   MPKI: 1.3211
STLB LOAD TRANSLATION ACCESS:     454486  HIT:     389401  MISS:      65085  HIT %:    85.6794  MISS %:    14.3206   MPKI: 1.3017
STLB TRANSLATION FROM L1D PREFETCHER ACCESS:     401191  HIT:     400221  MISS:        970  HIT %:    99.7582  MISS %:    0.24178   MPKI: 0.0194
STLB PREFETCH  REQUESTED:          0  ISSUED:          0  USEFUL:        759  USELESS:        229
STLB USEFUL LOAD PREFETCHES:        759 PREFETCH ISSUED TO LOWER LEVEL:          0  ACCURACY: inf
STLB TIMELY PREFETCHES:        759 LATE PREFETCHES: 0 DROPPED PREFETCHES: 90
STLB PREFETCHES SAME FILL-ORIGIN LEVEL: 0 DIFFERENT FILL-ORIGIN LEVEL: 0
STLB AVERAGE MISS LATENCY: 136.465 cycles
STLB RQ	ACCESS:     855768	FORWARD:          0	MERGED:          0	TO_CACHE:     855768

STLB Hit, L1D data hit: 0
STLB Hit, L2C data hit: 0
STLB Hit, LLC data hit: 0
STLB Hit, LLC data miss: 0
STLB STLB hints to L2: 0
L1D TOTAL     ACCESS:   13039659  HIT:   11250895  MISS:    1788764  HIT %:    86.2821  MISS %:    13.7179   MPKI: 35.7753
L1D LOAD      ACCESS:    7250456  HIT:    6377139  MISS:     873317  HIT %:     87.955  MISS %:     12.045   MPKI: 17.4663
L1D RFO       ACCESS:    5789203  HIT:    4873756  MISS:     915447  HIT %:     84.187  MISS %:     15.813   MPKI: 18.3089
L1D PREFETCH  REQUESTED:          0  ISSUED:          0  USEFUL:          0  USELESS:          0
L1D USEFUL LOAD PREFETCHES:          0 PREFETCH ISSUED TO LOWER LEVEL:          0  ACCURACY: -nan
L1D TIMELY PREFETCHES:          0 LATE PREFETCHES: 0 DROPPED PREFETCHES: 0
L1D PREFETCHES SAME FILL-ORIGIN LEVEL: 0 DIFFERENT FILL-ORIGIN LEVEL: 0
L1D AVERAGE MISS LATENCY: 179.577 cycles
L1D RQ	ACCESS:   10675265	FORWARD:          0	MERGED:    3273942	TO_CACHE:    7294593
L1D WQ	ACCESS:    8106889	FORWARD:     106730	MERGED:     104562	TO_CACHE:    8002327

L1D UNIQUE REGIONS ACCESSED: 0
L1D REGIONS CONFLICTS: 0
L1D Cross Page Prefetch Requests: 0
L1D Same Page Prefetch Requests: 0
L1D ROI Sum of L1D PQ occupancy: 0
L1D PREFETCHES PUSHED FROM L2C: 0
L1I TOTAL     ACCESS:   14125491  HIT:   11326349  MISS:    2799142  HIT %:    80.1838  MISS %:    19.8162   MPKI: 55.9828
L1I LOAD      ACCESS:    9736773  HIT:    9709253  MISS:      27520  HIT %:    99.7174  MISS %:    0.28264   MPKI: 0.5504
L1I PREFETCH  ACCESS:    4388718  HIT:    1617096  MISS:    2771622  HIT %:    36.8467  MISS %:    63.1533   MPKI: 55.4324
L1I PREFETCH  REQUESTED:    4677709  ISSUED:    4668505  USEFUL:    2326680  USELESS:     444982
L1I USEFUL LOAD PREFETCHES:    2326680 PREFETCH ISSUED TO LOWER LEVEL:    2785020  ACCURACY: 83.5427
L1I TIMELY PREFETCHES:    2326680 LATE PREFETCHES: 13264 DROPPED PREFETCHES: 157
L1I PREFETCHES SAME FILL-ORIGIN LEVEL: 2785020 DIFFERENT FILL-ORIGIN LEVEL: 0
L1I AVERAGE MISS LATENCY: 401728 cycles
L1I RQ	ACCESS:   14084978	FORWARD:          0	MERGED:    4340654	TO_CACHE:    9744324
L1I PQ	ACCESS:    4668505	FORWARD:          0	MERGED:     189477	TO_CACHE:    4479028

BTB TOTAL     ACCESS:    5496535  HIT:    5258217  MISS:     238318  HIT %:    95.6642  MISS %:    4.33579   MPKI: 4.76636
BTB BRANCH_DIRECT_JUMP	ACCESS:     462382  HIT:     460596  MISS:       1786
BTB BRANCH_INDIRECT	ACCESS:      45460  HIT:      45289  MISS:        171
BTB BRANCH_CONDITIONAL	ACCESS:    3246751  HIT:    3240930  MISS:       5821
BTB BRANCH_DIRECT_CALL	ACCESS:     666239  HIT:     662428  MISS:       3811
BTB BRANCH_INDIRECT_CALL	ACCESS:     204728  HIT:     179061  MISS:      25667
BTB BRANCH_RETURN	ACCESS:     870975  HIT:     669913  MISS:     201062
BTB BRANCH_OTHER ACCESS:          0  HIT:          0  MISS:          0

L2C TOTAL     ACCESS:    6483674  HIT:    4680737  MISS:    1802937  HIT %:    72.1927  MISS %:    27.8073   MPKI: 36.0587
L2C LOAD      ACCESS:     887567  HIT:     358650  MISS:     528917  HIT %:    40.4082  MISS %:    59.5918   MPKI: 10.5783
L2C DATA LOAD MPKI: 10.4581
L2C INSTRUCTION LOAD MPKI: 0.12022
L2C RFO       ACCESS:     915433  HIT:      32100  MISS:     883333  HIT %:    3.50654  MISS %:    96.4935   MPKI: 17.6667
L2C PREFETCH  ACCESS:    3426079  HIT:    3119462  MISS:     306617  HIT %:    91.0505  MISS %:     8.9495   MPKI: 6.13234
L2C DATA PREFETCH MPKI: 3.4165
L2C INSTRUCTION PREFETCH MPKI: 2.71584
L2C WRITEBACK ACCESS:    1161842  HIT:    1108646  MISS:      53196  HIT %:    95.4214  MISS %:    4.57859   MPKI: 1.06392
L2C LOAD TRANSLATION ACCESS:      91144  HIT:      61279  MISS:      29865  HIT %:    67.2332  MISS %:    32.7668   MPKI: 0.5973
L2C TRANSLATION FROM L1D PREFETCHER ACCESS:       1609  HIT:        600  MISS:       1009  HIT %:    37.2902  MISS %:    62.7098   MPKI: 0.02018
L2C PREFETCH  REQUESTED:    2941135  ISSUED:    2941001  USEFUL:     165704  USELESS:     141239
L2C USEFUL LOAD PREFETCHES:     165704 PREFETCH ISSUED TO LOWER LEVEL:    1819356  ACCURACY: 9.10784
L2C TIMELY PREFETCHES:     165704 LATE PREFETCHES: 2260 DROPPED PREFETCHES: 0
L2C PREFETCHES SAME FILL-ORIGIN LEVEL: 173172 DIFFERENT FILL-ORIGIN LEVEL: 1510479
L2C AVERAGE MISS LATENCY: 178.367 cycles
L2C RQ	ACCESS:    1895773	FORWARD:          0	MERGED:          0	TO_CACHE:    1895753
L2C WQ	ACCESS:    1161842	FORWARD:         20	MERGED:          0	TO_CACHE:    1161842
L2C PQ	ACCESS:    5725891	FORWARD:          0	MERGED:     765343	TO_CACHE:    4960548

L2C Instructions Evicting Data 127506
L2C Translations Evicting Data 27855
L2C Data Evicting Data 1427571
L2C Instructions Evicting Instructions 11841
L2C Translations Evicting Instructions 2534
L2C Data Evicting Instructions 122281
L2C Instructions Evicting Translations 2456
L2C Translations Evicting Translations 485
L2C Data Evicting Translations 27212
L2C Dense regions hint from L2: 0
PSCL5 TOTAL     ACCESS:      66145  HIT:      66145  MISS:          0  HIT %:        100  MISS %:          0   MPKI: 0
PSCL5 LOAD TRANSLATION ACCESS:      65085  HIT:      65085  MISS:          0  HIT %:        100  MISS %:          0   MPKI: 0
PSCL5 TRANSLATION FROM L1D PREFETCHER ACCESS:       1060  HIT:       1060  MISS:          0  HIT %:        100  MISS %:          0   MPKI: 0
PSCL5 PREFETCH  REQUESTED:          0  ISSUED:          0  USEFUL:          0  USELESS:          0
PSCL5 USEFUL LOAD PREFETCHES:          0 PREFETCH ISSUED TO LOWER LEVEL:          0  ACCURACY: -nan
PSCL5 TIMELY PREFETCHES:          0 LATE PREFETCHES: 0 DROPPED PREFETCHES: 0
PSCL5 PREFETCHES SAME FILL-ORIGIN LEVEL: 0 DIFFERENT FILL-ORIGIN LEVEL: 0

PSCL4 TOTAL     ACCESS:      65216  HIT:      65094  MISS:        122  HIT %:    99.8129  MISS %:   0.187071   MPKI: 0.00244
PSCL4 LOAD TRANSLATION ACCESS:      64263  HIT:      64141  MISS:        122  HIT %:    99.8102  MISS %:   0.189845   MPKI: 0.00244
PSCL4 TRANSLATION FROM L1D PREFETCHER ACCESS:        953  HIT:        953  MISS:          0  HIT %:        100  MISS %:          0   MPKI: 0
PSCL4 PREFETCH  REQUESTED:          0  ISSUED:          0  USEFUL:          0  USELESS:          0
PSCL4 USEFUL LOAD PREFETCHES:          0 PREFETCH ISSUED TO LOWER LEVEL:          0  ACCURACY: -nan
PSCL4 TIMELY PREFETCHES:          0 LATE PREFETCHES: 0 DROPPED PREFETCHES: 0
PSCL4 PREFETCHES SAME FILL-ORIGIN LEVEL: 0 DIFFERENT FILL-ORIGIN LEVEL: 0

PSCL3 TOTAL     ACCESS:      65735  HIT:      65262  MISS:        473  HIT %:    99.2804  MISS %:   0.719556   MPKI: 0.00946
PSCL3 LOAD TRANSLATION ACCESS:      64810  HIT:      64337  MISS:        473  HIT %:    99.2702  MISS %:   0.729826   MPKI: 0.00946
PSCL3 TRANSLATION FROM L1D PREFETCHER ACCESS:        925  HIT:        925  MISS:          0  HIT %:        100  MISS %:          0   MPKI: 0
PSCL3 PREFETCH  REQUESTED:          0  ISSUED:          0  USEFUL:          0  USELESS:          0
PSCL3 USEFUL LOAD PREFETCHES:          0 PREFETCH ISSUED TO LOWER LEVEL:          0  ACCURACY: -nan
PSCL3 TIMELY PREFETCHES:          0 LATE PREFETCHES: 0 DROPPED PREFETCHES: 0
PSCL3 PREFETCHES SAME FILL-ORIGIN LEVEL: 0 DIFFERENT FILL-ORIGIN LEVEL: 0

PSCL2 TOTAL     ACCESS:      66065  HIT:      40096  MISS:      25969  HIT %:    60.6917  MISS %:    39.3083   MPKI: 0.51938
PSCL2 LOAD TRANSLATION ACCESS:      65432  HIT:      39463  MISS:      25969  HIT %:    60.3115  MISS %:    39.6885   MPKI: 0.51938
PSCL2 TRANSLATION FROM L1D PREFETCHER ACCESS:        633  HIT:        633  MISS:          0  HIT %:        100  MISS %:          0   MPKI: 0
PSCL2 PREFETCH  REQUESTED:          0  ISSUED:          0  USEFUL:          0  USELESS:          0
PSCL2 USEFUL LOAD PREFETCHES:          0 PREFETCH ISSUED TO LOWER LEVEL:          0  ACCURACY: -nan
PSCL2 TIMELY PREFETCHES:          0 LATE PREFETCHES: 0 DROPPED PREFETCHES: 0
PSCL2 PREFETCHES SAME FILL-ORIGIN LEVEL: 0 DIFFERENT FILL-ORIGIN LEVEL: 0

LLC TOTAL     ACCESS:    4104622  HIT:    1891902  MISS:    2212720  HIT %:     46.092  MISS %:     53.908   MPKI: 44.2544
LLC LOAD      ACCESS:     526657  HIT:     287096  MISS:     239561  HIT %:    54.5129  MISS %:    45.4871   MPKI: 4.79122
LLC RFO       ACCESS:     883330  HIT:     126664  MISS:     756666  HIT %:    14.3394  MISS %:    85.6606   MPKI: 15.1333
LLC PREFETCH  ACCESS:    1572700  HIT:    1204634  MISS:     368066  HIT %:    76.5966  MISS %:    23.4034   MPKI: 7.36132
LLC WRITEBACK ACCESS:    1091061  HIT:     267695  MISS:     823366  HIT %:    24.5353  MISS %:    75.4647   MPKI: 16.4673
LLC LOAD TRANSLATION ACCESS:      29865  HIT:       5605  MISS:      24260  HIT %:    18.7678  MISS %:    81.2322   MPKI: 0.4852
LLC TRANSLATION FROM L1D PREFETCHER ACCESS:       1009  HIT:        208  MISS:        801  HIT %:    20.6145  MISS %:    79.3855   MPKI: 0.01602
LLC PREFETCH  REQUESTED:          0  ISSUED:          0  USEFUL:     103386  USELESS:     259259
LLC USEFUL LOAD PREFETCHES:     103386 PREFETCH ISSUED TO LOWER LEVEL:     372730  ACCURACY: 27.7375
LLC TIMELY PREFETCHES:     103386 LATE PREFETCHES: 4664 DROPPED PREFETCHES: 0
LLC PREFETCHES SAME FILL-ORIGIN LEVEL: 324356 DIFFERENT FILL-ORIGIN LEVEL: 0
LLC AVERAGE MISS LATENCY: 147.563 cycles
LLC RQ	ACCESS:    1440864	FORWARD:          0	MERGED:          0	TO_CACHE:    1440861
LLC WQ	ACCESS:    1091061	FORWARD:          3	MERGED:          0	TO_CACHE:    1091061
LLC PQ	ACCESS:    1819356	FORWARD:          0	MERGED:        683	TO_CACHE:    1818673

LLC Dense regions hint to LLC: 0

RAW hits: 1308680
Loads Generated: 11983945
Loads sent to L1D: 10675265
Stores Generated: 8106873
Stores sent to L1D: 8106889
Major fault: 0 Minor fault: 25901
Allocated PAGES: 25901
I-Shadow cache 408 bytes
Touched + WorthPF tables 6144 bytes 
MMA filter 174 bytes 
FNL filter 272 bytes 
TOTAL PREFETCHER STORAGE SIZE: 25174 bytes
CPU 0 L1I next line prefetcher final stats
 All Calls: 7639369
 Critical Calls: 2150538
------------------
Depth Distribution
------------------
depth 0: 0
depth 1: 1880784
depth 2: 1137486
depth 3: 586767
depth 4: 322527
depth 5: 185090
depth 6: 128034
depth 7: 76467
depth 8: 40818
depth 9: 6248
depth 10: 142
depth 11: 0
depth 12: 0
depth 13: 0
depth 14: 0
depth 15: 0
depth 16: 0
depth 17: 0
depth 18: 0
depth 19: 0
depth 20: 0
depth 21: 0
depth 22: 0
depth 23: 0
depth 24: 0
depth 25: 0
depth 26: 0
depth 27: 0
depth 28: 0
depth 29: 0
Total: 4364363
-----------------------------
-----------------------------
	Captured at Filter
-----------------------------
depth 0: 0
depth 1: 293821
depth 2: 221697
depth 3: 148980
depth 4: 70674
depth 5: 12254
depth 6: 2509
depth 7: 906
depth 8: 135
depth 9: 20
depth 10: 0
depth 11: 0
depth 12: 0
depth 13: 0
depth 14: 0
depth 15: 0
depth 16: 0
depth 17: 0
depth 18: 0
depth 19: 0
depth 20: 0
depth 21: 0
depth 22: 0
depth 23: 0
depth 24: 0
depth 25: 0
depth 26: 0
depth 27: 0
depth 28: 0
depth 29: 0
-----------------------------
-----------------------------
		Lost at Page
-----------------------------
depth 0: 0
depth 1: 40086
depth 2: 26280
depth 3: 16940
depth 4: 15235
depth 5: 12859
depth 6: 11569
depth 7: 8933
depth 8: 5810
depth 9: 1031
depth 10: 24
depth 11: 0
depth 12: 0
depth 13: 0
depth 14: 0
depth 15: 0
depth 16: 0
depth 17: 0
depth 18: 0
depth 19: 0
depth 20: 0
depth 21: 0
depth 22: 0
depth 23: 0
depth 24: 0
depth 25: 0
depth 26: 0
depth 27: 0
depth 28: 0
depth 29: 0
-----------------------------
-----------------------------
	Lost due to PQ Size
-----------------------------
135
-----------------------------
ST read accesses: 1100773
ST write accesses: 70344
PT read accesses: 24421925
PT write accesses: 1546935
FILTER read accesses: 6243058
FILTER write accesses: 2300546
GHR read accesses: 1160035
GHR write accesses: 107103
GHR counter read accesses: 20189630
GHR counter write accesses: 1680018
ST tag read accesses: 477281260
ST tag write accesses: 32283766

DRAM Statistics
 CHANNEL 0
 RQ ROW_BUFFER_HIT:     418567  ROW_BUFFER_MISS:     970721
 DBUS_CONGESTED:        518
 WQ ROW_BUFFER_HIT:     221946  ROW_BUFFER_MISS:     677141  FULL:      18737

 AVG_CONGESTED_CYCLE: 3
 All warmup complete: 2
Channel 0 Bank busy for read cycles: 0
Channel 0 Bank busy for write cycles: 0
Channel 0
Rank 0
0banks busy for read cycles: 19112028
0banks busy for write cycles: 59209
1banks busy for read cycles: 26216018
1banks busy for write cycles: 9266582
2banks busy for read cycles: 14141319
2banks busy for write cycles: 5918746
3banks busy for read cycles: 9256398
3banks busy for write cycles: 4013838
4banks busy for read cycles: 5045471
4banks busy for write cycles: 2888463
5banks busy for read cycles: 1871258
5banks busy for write cycles: 2191371
6banks busy for read cycles: 1274234
6banks busy for write cycles: 1778332
7banks busy for read cycles: 1381037
7banks busy for write cycles: 2404710
8banks busy for read cycles: 5068277
8banks busy for write cycles: 11336632

CPU 0 Branch Prediction Accuracy: 99.2186% MPKI: 1.3219 Average ROB Occupancy at Mispredict: 134.436
Branch types
NOT_BRANCH: 41540709 83.0814%
BRANCH_DIRECT_JUMP: 462382 0.924764%
BRANCH_INDIRECT: 45460 0.09092%
BRANCH_CONDITIONAL: 6209260 12.4185%
BRANCH_DIRECT_CALL: 666239 1.33248%
BRANCH_INDIRECT_CALL: 204728 0.409456%
BRANCH_RETURN: 870975 1.74195%
BRANCH_OTHER: 0 0%

DRAM PAGES: 1048576
Allocated PAGES: 25901
