
*** ChampSim Multicore Out-of-Order Simulator ***

Warmup Instructions: 50000000
Simulation Instructions: 50000000
Number of CPUs: 1
LLC sets: 2048
LLC ways: 16
Off-chip DRAM Size: 4096 MB Channels: 1 Width: 64-bit Data Rate: 6400 MT/s
CPU 0 runs ../IPC-traces//server_030.champsimtrace.xz
.xz
NUM_OF_IPS_IN_CRITICAL_IP_TRAINING: 64
NUM_OF_CRITICAL_IP_TRAINING_TABLE_WAYS: 2
NUM_OF_CRITICAL_IP_TRAINING_TABLE_SETS: 32
WOBBLY_CRITICAL_IP_CACHE_SETS: 32
WOBBLY_CRITICAL_IP_CACHE_WAYS: 4
BTB has LRU replacement policy
ITLB has LRU replacement policy
DTLB has LRU replacement policy
STLB has LRU replacement policy
CPU 0 L1I next line prefetcher
L1I has LRU replacement policy
L1D has LRU replacement policy
Bingo PHT WAYS: 16 and PHT_SIZE: 16384
Initialize SRRIP state for L2C
Initialize DRRIP state for LLC
Heartbeat CPU 0 instructions: 10000003 cycles: 2887351 heartbeat IPC: 3.46338 cumulative IPC: 3.46338 (Simulation time: 0 hr 3 min 25 sec) 
Heartbeat CPU 0 instructions: 20000003 cycles: 5770329 heartbeat IPC: 3.46864 cumulative IPC: 3.46601 (Simulation time: 0 hr 6 min 1 sec) 
Heartbeat CPU 0 instructions: 30000003 cycles: 8653665 heartbeat IPC: 3.4682 cumulative IPC: 3.46674 (Simulation time: 0 hr 8 min 24 sec) 
Heartbeat CPU 0 instructions: 40000001 cycles: 11537568 heartbeat IPC: 3.46752 cumulative IPC: 3.46694 (Simulation time: 0 hr 10 min 32 sec) 
Heartbeat CPU 0 instructions: 50000002 cycles: 14422463 heartbeat IPC: 3.46633 cumulative IPC: 3.46681 (Simulation time: 0 hr 12 min 25 sec) 

Warmup complete CPU 0 instructions: 50000002 cycles: 14422463 (Simulation time: 0 hr 12 min 25 sec) 

Heartbeat CPU 0 instructions: 60000000 cycles: 30490518 heartbeat IPC: 0.622353 cumulative IPC: 0.622353 (Simulation time: 0 hr 14 min 42 sec) 
Heartbeat CPU 0 instructions: 70000002 cycles: 46608310 heartbeat IPC: 0.620432 cumulative IPC: 0.621391 (Simulation time: 0 hr 17 min 1 sec) 
Heartbeat CPU 0 instructions: 80000001 cycles: 62583457 heartbeat IPC: 0.625972 cumulative IPC: 0.622911 (Simulation time: 0 hr 19 min 22 sec) 
*** Reached end of trace for Core: 0 Repeating trace: ../IPC-traces//server_030.champsimtrace.xz
Heartbeat CPU 0 instructions: 90000002 cycles: 78630580 heartbeat IPC: 0.623165 cumulative IPC: 0.622974 (Simulation time: 0 hr 21 min 39 sec) 
Heartbeat CPU 0 instructions: 100000000 cycles: 94507944 heartbeat IPC: 0.629827 cumulative IPC: 0.624333 (Simulation time: 0 hr 24 min 19 sec) 
Finished CPU 0 instructions: 50000002 cycles: 80085482 cumulative IPC: 0.624333 (Simulation time: 0 hr 24 min 19 sec) 

ChampSim completed all CPUs

Region of Interest Statistics

CPU 0 cumulative IPC: 0.624333 instructions: 50000002 cycles: 80085482

CPU 0 Average Load ROB stall cycles: 1.94454e+07
CPU 0 Fraction of times ROB stalled by Loads: 35.6574
CPU 0 Percentage of Load stall cycles in Total stall cycles: 2.76429e+08
Issued all: 28212531
Issued LT all: 22307461
rob_not_full_when_issued_lt_all: 22261902
Issued LT one: 17395142
rob_not_full_when_issued_lt_one: 17356509
 Total stall cycles: 67518202
 Total load stall cycles: 186639958378699
CPU 0 NUM of IPS identified critical: 0
CPU 0 Num of Load IPs stalling ROB: 10822
Threshold modification factor: 0
Max PIST entries: 64
Min PIST entries: 0
Avg PIST entries: 32
Trouble in retire width: 0.898293
MaC = Marked as critical.
lt_50_percent_before_Mac: 0
gt_90_percent_before_Mac: 0
gt_75_percent_before_Mac: 0
gt_50_percent_before_Mac: 0
stall_proportion_bin_same_before_after: 0
stall_proportion_bin_lower_before_after: 0
stall_proportion_bin_upper_before_after: 0
average_stall_proportion_before: -nan
average_stall_proportion_after: -nan
Critical IP stalls, total frequency: 0
Non-critical IP stalls, total frequency: 3422450
Total Freq all stalling IPs: 3422450
stat_90_percent_critical_ip_stalls_freq: 3080631
stat_90_percent_non_critical_ip_stalls_freq: 341819
Critical_IP_ROB_Stalls_Bucket_0: 0
Non-critical_IP_ROB_Stalls_Bucket_0: 2446230
Critical_IP_ROB_Stalls_Bucket_1: 0
Non-critical_IP_ROB_Stalls_Bucket_1: 698721
Critical_IP_ROB_Stalls_Bucket_2: 0
Non-critical_IP_ROB_Stalls_Bucket_2: 208894
Critical_IP_ROB_Stalls_Bucket_3: 0
Non-critical_IP_ROB_Stalls_Bucket_3: 46273
Critical_IP_ROB_Stalls_Bucket_4: 0
Non-critical_IP_ROB_Stalls_Bucket_4: 11325
Critical_IP_ROB_Stalls_Bucket_5: 0
Non-critical_IP_ROB_Stalls_Bucket_5: 5275
Critical_IP_ROB_Stalls_Bucket_6: 0
Non-critical_IP_ROB_Stalls_Bucket_6: 5732
0 => IPs accounting for >50 percent of stalls, 1 => 55, 2 => 60, 3 => 65 and so on till 90.
percent50: 50.0209 num IPs:  467
percent55: 55.0053 num IPs: 665
percent60: 60.0147 num IPs: 879
percent65: 65.0018 num IPs: 1093
percent70: 70.0013 num IPs: 1313
percent75: 75.0025 num IPs: 1540
percent80: 80.0088 num IPs: 1770
percent85: 85.0125 num IPs: 2012
percent90: 90.0131 num IPs: 2298
Critical_ROB_Stalls_Percent_0_Bucket_0: 1067156
Non-critical_ROB_Stalls_Percent_0_Bucket_0: 1379074
Critical_ROB_Stalls_Percent_0_Bucket_1: 434087
Non-critical_ROB_Stalls_Percent_0_Bucket_1: 264634
Critical_ROB_Stalls_Percent_0_Bucket_2: 149272
Non-critical_ROB_Stalls_Percent_0_Bucket_2: 59622
Critical_ROB_Stalls_Percent_0_Bucket_3: 42076
Non-critical_ROB_Stalls_Percent_0_Bucket_3: 4197
Critical_ROB_Stalls_Percent_0_Bucket_4: 9608
Non-critical_ROB_Stalls_Percent_0_Bucket_4: 1717
Critical_ROB_Stalls_Percent_0_Bucket_5: 4590
Non-critical_ROB_Stalls_Percent_0_Bucket_5: 685
Critical_ROB_Stalls_Percent_0_Bucket_6: 5152
Non-critical_ROB_Stalls_Percent_0_Bucket_6: 580
Critical_ROB_Stalls_Percent_1_Bucket_0: 1198382
Non-critical_ROB_Stalls_Percent_1_Bucket_0: 1247848
Critical_ROB_Stalls_Percent_1_Bucket_1: 463478
Non-critical_ROB_Stalls_Percent_1_Bucket_1: 235243
Critical_ROB_Stalls_Percent_1_Bucket_2: 157587
Non-critical_ROB_Stalls_Percent_1_Bucket_2: 51307
Critical_ROB_Stalls_Percent_1_Bucket_3: 42945
Non-critical_ROB_Stalls_Percent_1_Bucket_3: 3328
Critical_ROB_Stalls_Percent_1_Bucket_4: 10346
Non-critical_ROB_Stalls_Percent_1_Bucket_4: 979
Critical_ROB_Stalls_Percent_1_Bucket_5: 4622
Non-critical_ROB_Stalls_Percent_1_Bucket_5: 653
Critical_ROB_Stalls_Percent_1_Bucket_6: 5167
Non-critical_ROB_Stalls_Percent_1_Bucket_6: 565
Critical_ROB_Stalls_Percent_2_Bucket_0: 1331788
Non-critical_ROB_Stalls_Percent_2_Bucket_0: 1114442
Critical_ROB_Stalls_Percent_2_Bucket_1: 494814
Non-critical_ROB_Stalls_Percent_2_Bucket_1: 203907
Critical_ROB_Stalls_Percent_2_Bucket_2: 164212
Non-critical_ROB_Stalls_Percent_2_Bucket_2: 44682
Critical_ROB_Stalls_Percent_2_Bucket_3: 43017
Non-critical_ROB_Stalls_Percent_2_Bucket_3: 3256
Critical_ROB_Stalls_Percent_2_Bucket_4: 10356
Non-critical_ROB_Stalls_Percent_2_Bucket_4: 969
Critical_ROB_Stalls_Percent_2_Bucket_5: 4622
Non-critical_ROB_Stalls_Percent_2_Bucket_5: 653
Critical_ROB_Stalls_Percent_2_Bucket_6: 5167
Non-critical_ROB_Stalls_Percent_2_Bucket_6: 565
Critical_ROB_Stalls_Percent_3_Bucket_0: 1450501
Non-critical_ROB_Stalls_Percent_3_Bucket_0: 995729
Critical_ROB_Stalls_Percent_3_Bucket_1: 538222
Non-critical_ROB_Stalls_Percent_3_Bucket_1: 160499
Critical_ROB_Stalls_Percent_3_Bucket_2: 172622
Non-critical_ROB_Stalls_Percent_3_Bucket_2: 36272
Critical_ROB_Stalls_Percent_3_Bucket_3: 43156
Non-critical_ROB_Stalls_Percent_3_Bucket_3: 3117
Critical_ROB_Stalls_Percent_3_Bucket_4: 10362
Non-critical_ROB_Stalls_Percent_3_Bucket_4: 963
Critical_ROB_Stalls_Percent_3_Bucket_5: 4622
Non-critical_ROB_Stalls_Percent_3_Bucket_5: 653
Critical_ROB_Stalls_Percent_3_Bucket_6: 5167
Non-critical_ROB_Stalls_Percent_3_Bucket_6: 565
Critical_ROB_Stalls_Percent_4_Bucket_0: 1592897
Non-critical_ROB_Stalls_Percent_4_Bucket_0: 853333
Critical_ROB_Stalls_Percent_4_Bucket_1: 560217
Non-critical_ROB_Stalls_Percent_4_Bucket_1: 138504
Critical_ROB_Stalls_Percent_4_Bucket_2: 178804
Non-critical_ROB_Stalls_Percent_4_Bucket_2: 30090
Critical_ROB_Stalls_Percent_4_Bucket_3: 43450
Non-critical_ROB_Stalls_Percent_4_Bucket_3: 2823
Critical_ROB_Stalls_Percent_4_Bucket_4: 10562
Non-critical_ROB_Stalls_Percent_4_Bucket_4: 763
Critical_ROB_Stalls_Percent_4_Bucket_5: 4659
Non-critical_ROB_Stalls_Percent_4_Bucket_5: 616
Critical_ROB_Stalls_Percent_4_Bucket_6: 5167
Non-critical_ROB_Stalls_Percent_4_Bucket_6: 565
Critical_ROB_Stalls_Percent_5_Bucket_0: 1724587
Non-critical_ROB_Stalls_Percent_5_Bucket_0: 721643
Critical_ROB_Stalls_Percent_5_Bucket_1: 589411
Non-critical_ROB_Stalls_Percent_5_Bucket_1: 109310
Critical_ROB_Stalls_Percent_5_Bucket_2: 188927
Non-critical_ROB_Stalls_Percent_5_Bucket_2: 19967
Critical_ROB_Stalls_Percent_5_Bucket_3: 43580
Non-critical_ROB_Stalls_Percent_5_Bucket_3: 2693
Critical_ROB_Stalls_Percent_5_Bucket_4: 10569
Non-critical_ROB_Stalls_Percent_5_Bucket_4: 756
Critical_ROB_Stalls_Percent_5_Bucket_5: 4660
Non-critical_ROB_Stalls_Percent_5_Bucket_5: 615
Critical_ROB_Stalls_Percent_5_Bucket_6: 5167
Non-critical_ROB_Stalls_Percent_5_Bucket_6: 565
Critical_ROB_Stalls_Percent_6_Bucket_0: 1868950
Non-critical_ROB_Stalls_Percent_6_Bucket_0: 577280
Critical_ROB_Stalls_Percent_6_Bucket_1: 612498
Non-critical_ROB_Stalls_Percent_6_Bucket_1: 86223
Critical_ROB_Stalls_Percent_6_Bucket_2: 192782
Non-critical_ROB_Stalls_Percent_6_Bucket_2: 16112
Critical_ROB_Stalls_Percent_6_Bucket_3: 43609
Non-critical_ROB_Stalls_Percent_6_Bucket_3: 2664
Critical_ROB_Stalls_Percent_6_Bucket_4: 10570
Non-critical_ROB_Stalls_Percent_6_Bucket_4: 755
Critical_ROB_Stalls_Percent_6_Bucket_5: 4661
Non-critical_ROB_Stalls_Percent_6_Bucket_5: 614
Critical_ROB_Stalls_Percent_6_Bucket_6: 5167
Non-critical_ROB_Stalls_Percent_6_Bucket_6: 565
Critical_ROB_Stalls_Percent_7_Bucket_0: 2020411
Non-critical_ROB_Stalls_Percent_7_Bucket_0: 425819
Critical_ROB_Stalls_Percent_7_Bucket_1: 629410
Non-critical_ROB_Stalls_Percent_7_Bucket_1: 69311
Critical_ROB_Stalls_Percent_7_Bucket_2: 195497
Non-critical_ROB_Stalls_Percent_7_Bucket_2: 13397
Critical_ROB_Stalls_Percent_7_Bucket_3: 43769
Non-critical_ROB_Stalls_Percent_7_Bucket_3: 2504
Critical_ROB_Stalls_Percent_7_Bucket_4: 10571
Non-critical_ROB_Stalls_Percent_7_Bucket_4: 754
Critical_ROB_Stalls_Percent_7_Bucket_5: 4661
Non-critical_ROB_Stalls_Percent_7_Bucket_5: 614
Critical_ROB_Stalls_Percent_7_Bucket_6: 5167
Non-critical_ROB_Stalls_Percent_7_Bucket_6: 565
Critical_ROB_Stalls_Percent_8_Bucket_0: 2167659
Non-critical_ROB_Stalls_Percent_8_Bucket_0: 278571
Critical_ROB_Stalls_Percent_8_Bucket_1: 649732
Non-critical_ROB_Stalls_Percent_8_Bucket_1: 48989
Critical_ROB_Stalls_Percent_8_Bucket_2: 198608
Non-critical_ROB_Stalls_Percent_8_Bucket_2: 10286
Critical_ROB_Stalls_Percent_8_Bucket_3: 44105
Non-critical_ROB_Stalls_Percent_8_Bucket_3: 2168
Critical_ROB_Stalls_Percent_8_Bucket_4: 10652
Non-critical_ROB_Stalls_Percent_8_Bucket_4: 673
Critical_ROB_Stalls_Percent_8_Bucket_5: 4685
Non-critical_ROB_Stalls_Percent_8_Bucket_5: 590
Critical_ROB_Stalls_Percent_8_Bucket_6: 5190
Non-critical_ROB_Stalls_Percent_8_Bucket_6: 542
Average ROB occupancy Load Stall Begin: 34.634
Average ROB occupancy Load Stall End: 43.171
Min ROB occupancy Load Stall Begin: 1
Max ROB occupancy Load Stall Begin: 352
Min ROB occupancy Load Stall End: 1
Max ROB occupancy Load Stall End: 352
Average ROB occupancy Critical Load Stall Begin: -nan
Average ROB occupancy Critical Load Stall End: -nan
Min ROB occupancy Critical Load Stall Begin: 400
Max ROB occupancy Critical Load Stall Begin: 0
Min ROB occupancy Critical Load Stall End: 400
Max ROB occupancy Critical Load Stall End: 0
 ROB Load Stall Begin Bucket Count 0: 2698765
 ROB Load Stall End Bucket Count 0: 2446230
 ROB Critical Load Stall Begin Bucket Count 0: 0
 ROB Critical Load Stall End Bucket Count 0: 0
 ROB Load Stall Begin Bucket Count 1: 520548
 ROB Load Stall End Bucket Count 1: 698721
 ROB Critical Load Stall Begin Bucket Count 1: 0
 ROB Critical Load Stall End Bucket Count 1: 0
 ROB Load Stall Begin Bucket Count 2: 148769
 ROB Load Stall End Bucket Count 2: 208894
 ROB Critical Load Stall Begin Bucket Count 2: 0
 ROB Critical Load Stall End Bucket Count 2: 0
 ROB Load Stall Begin Bucket Count 3: 35691
 ROB Load Stall End Bucket Count 3: 46273
 ROB Critical Load Stall Begin Bucket Count 3: 0
 ROB Critical Load Stall End Bucket Count 3: 0
 ROB Load Stall Begin Bucket Count 4: 9073
 ROB Load Stall End Bucket Count 4: 11325
 ROB Critical Load Stall Begin Bucket Count 4: 0
 ROB Critical Load Stall End Bucket Count 4: 0
 ROB Load Stall Begin Bucket Count 5: 4901
 ROB Load Stall End Bucket Count 5: 5275
 ROB Critical Load Stall Begin Bucket Count 5: 0
 ROB Critical Load Stall End Bucket Count 5: 0
 ROB Load Stall Begin Bucket Count 6: 4703
 ROB Load Stall End Bucket Count 6: 5732
 ROB Critical Load Stall Begin Bucket Count 6: 0
 ROB Critical Load Stall End Bucket Count 6: 0
PIST Tag Read Accesses: 1844650
PIST Read Accesses: 922325
PIST Tag Write Accesses: 1844650
PIST Write Accesses: 922325
Criticality detector called times: 3401067
Max global_stall_cycles_count: 1687473
Threshold Modified: 0 times, factor: 0
Sturdy critical IP cache stats: 
 Unused entries: 0
CIC Tag Read Accesses: 0
CIC Read Accesses: 0
CIC Tag Write Accesses: 0
CIC Write Accesses: 0
Wobbly critical IP cache stats: 
 Unused entries: 126
CIC Tag Read Accesses: 154051732
CIC Read Accesses: 0
CIC Tag Write Accesses: 2
CIC Write Accesses: 0
ITLB TOTAL     ACCESS:   10466588  HIT:    9724808  MISS:     741780  HIT %:    92.9129  MISS %:    7.08712   MPKI: 14.8356
ITLB LOAD TRANSLATION ACCESS:    8341303  HIT:    8286136  MISS:      55167  HIT %:    99.3386  MISS %:   0.661371   MPKI: 1.10334
ITLB TRANSLATION FROM L1D PREFETCHER ACCESS:    2125285  HIT:    1438672  MISS:     686613  HIT %:    67.6931  MISS %:    32.3069   MPKI: 13.7323
ITLB PREFETCH  REQUESTED:          0  ISSUED:          0  USEFUL:     555974  USELESS:     130636
ITLB USEFUL LOAD PREFETCHES:     555974 PREFETCH ISSUED TO LOWER LEVEL:          0  ACCURACY: inf
ITLB TIMELY PREFETCHES:     555974 LATE PREFETCHES: 118 DROPPED PREFETCHES: 5601
ITLB PREFETCHES SAME FILL-ORIGIN LEVEL: 0 DIFFERENT FILL-ORIGIN LEVEL: 0
ITLB AVERAGE MISS LATENCY: 7833.33 cycles
ITLB RQ	ACCESS:   15849997	FORWARD:          0	MERGED:    5338126	TO_CACHE:   10511871

DTLB TOTAL     ACCESS:   11228457  HIT:   10703236  MISS:     525221  HIT %:    95.3224  MISS %:    4.67759   MPKI: 10.5044
DTLB LOAD TRANSLATION ACCESS:   11228457  HIT:   10703236  MISS:     525221  HIT %:    95.3224  MISS %:    4.67759   MPKI: 10.5044
DTLB PREFETCH  REQUESTED:          0  ISSUED:          0  USEFUL:          0  USELESS:          0
DTLB USEFUL LOAD PREFETCHES:          0 PREFETCH ISSUED TO LOWER LEVEL:          0  ACCURACY: -nan
DTLB TIMELY PREFETCHES:          0 LATE PREFETCHES: 0 DROPPED PREFETCHES: 0
DTLB PREFETCHES SAME FILL-ORIGIN LEVEL: 0 DIFFERENT FILL-ORIGIN LEVEL: 0
DTLB AVERAGE MISS LATENCY: 9.36769 cycles
DTLB RQ	ACCESS:   14751872	FORWARD:          0	MERGED:    3494728	TO_CACHE:   11257144

STLB TOTAL     ACCESS:    1267001  HIT:    1257719  MISS:       9282  HIT %:    99.2674  MISS %:   0.732596   MPKI: 0.18564
STLB LOAD TRANSLATION ACCESS:     580270  HIT:     575037  MISS:       5233  HIT %:    99.0982  MISS %:   0.901822   MPKI: 0.10466
STLB TRANSLATION FROM L1D PREFETCHER ACCESS:     686731  HIT:     682682  MISS:       4049  HIT %:    99.4104  MISS %:   0.589605   MPKI: 0.08098
STLB PREFETCH  REQUESTED:          0  ISSUED:          0  USEFUL:       2758  USELESS:       1293
STLB USEFUL LOAD PREFETCHES:       2758 PREFETCH ISSUED TO LOWER LEVEL:          0  ACCURACY: inf
STLB TIMELY PREFETCHES:       2758 LATE PREFETCHES: 0 DROPPED PREFETCHES: 5601
STLB PREFETCHES SAME FILL-ORIGIN LEVEL: 0 DIFFERENT FILL-ORIGIN LEVEL: 0
STLB AVERAGE MISS LATENCY: 29.6926 cycles
STLB RQ	ACCESS:    1272602	FORWARD:          0	MERGED:          0	TO_CACHE:    1272602

STLB Hit, L1D data hit: 0
STLB Hit, L2C data hit: 0
STLB Hit, LLC data hit: 0
STLB Hit, LLC data miss: 0
STLB STLB hints to L2: 0
L1D TOTAL     ACCESS:   14227848  HIT:   12765972  MISS:    1461876  HIT %:    89.7252  MISS %:    10.2748   MPKI: 29.2375
L1D LOAD      ACCESS:    7960859  HIT:    6808298  MISS:    1152561  HIT %:    85.5222  MISS %:    14.4778   MPKI: 23.0512
L1D RFO       ACCESS:    6266989  HIT:    5957674  MISS:     309315  HIT %:    95.0644  MISS %:    4.93562   MPKI: 6.1863
L1D PREFETCH  REQUESTED:          0  ISSUED:          0  USEFUL:          0  USELESS:          0
L1D USEFUL LOAD PREFETCHES:          0 PREFETCH ISSUED TO LOWER LEVEL:          0  ACCURACY: -nan
L1D TIMELY PREFETCHES:          0 LATE PREFETCHES: 0 DROPPED PREFETCHES: 0
L1D PREFETCHES SAME FILL-ORIGIN LEVEL: 0 DIFFERENT FILL-ORIGIN LEVEL: 0
L1D AVERAGE MISS LATENCY: 19.153 cycles
L1D RQ	ACCESS:   11310332	FORWARD:          0	MERGED:    3164868	TO_CACHE:    7997385
L1D WQ	ACCESS:    6823740	FORWARD:     148079	MERGED:      69253	TO_CACHE:    6754487

L1D UNIQUE REGIONS ACCESSED: 0
L1D REGIONS CONFLICTS: 0
L1D Cross Page Prefetch Requests: 0
L1D Same Page Prefetch Requests: 0
L1D ROI Sum of L1D PQ occupancy: 0
L1D PREFETCHES PUSHED FROM L2C: 0
L1I TOTAL     ACCESS:   15762124  HIT:   11482720  MISS:    4279404  HIT %:    72.8501  MISS %:    27.1499   MPKI: 85.5881
L1I LOAD      ACCESS:    9810067  HIT:    9706249  MISS:     103818  HIT %:    98.9417  MISS %:    1.05828   MPKI: 2.07636
L1I PREFETCH  ACCESS:    5952057  HIT:    1776471  MISS:    4175586  HIT %:    29.8463  MISS %:    70.1537   MPKI: 83.5117
L1I PREFETCH  REQUESTED:    6160109  ISSUED:    6140885  USEFUL:    2959183  USELESS:    1216401
L1I USEFUL LOAD PREFETCHES:    2959183 PREFETCH ISSUED TO LOWER LEVEL:    4187650  ACCURACY: 70.6645
L1I TIMELY PREFETCHES:    2959183 LATE PREFETCHES: 12064 DROPPED PREFETCHES: 13233
L1I PREFETCHES SAME FILL-ORIGIN LEVEL: 4187650 DIFFERENT FILL-ORIGIN LEVEL: 0
L1I AVERAGE MISS LATENCY: 152866 cycles
L1I RQ	ACCESS:   13564055	FORWARD:          0	MERGED:    3741047	TO_CACHE:    9823008
L1I PQ	ACCESS:    6140885	FORWARD:          0	MERGED:     113896	TO_CACHE:    6026989

BTB TOTAL     ACCESS:    6033516  HIT:    4123215  MISS:    1910301  HIT %:    68.3385  MISS %:    31.6615   MPKI: 38.206
BTB BRANCH_DIRECT_JUMP	ACCESS:     490939  HIT:     331427  MISS:     159512
BTB BRANCH_INDIRECT	ACCESS:     175853  HIT:     140870  MISS:      34983
BTB BRANCH_CONDITIONAL	ACCESS:    2983032  HIT:    2460633  MISS:     522399
BTB BRANCH_DIRECT_CALL	ACCESS:    1002064  HIT:     623208  MISS:     378856
BTB BRANCH_INDIRECT_CALL	ACCESS:     189782  HIT:     117779  MISS:      72003
BTB BRANCH_RETURN	ACCESS:    1191846  HIT:     449298  MISS:     742548
BTB BRANCH_OTHER ACCESS:          0  HIT:          0  MISS:          0

L2C TOTAL     ACCESS:    6352226  HIT:    5881282  MISS:     470944  HIT %:    92.5862  MISS %:    7.41384   MPKI: 9.41888
L2C LOAD      ACCESS:    1244199  HIT:    1096544  MISS:     147655  HIT %:    88.1325  MISS %:    11.8675   MPKI: 2.9531
L2C DATA LOAD MPKI: 2.68812
L2C INSTRUCTION LOAD MPKI: 0.26498
L2C RFO       ACCESS:     309315  HIT:     280552  MISS:      28763  HIT %:    90.7011  MISS %:    9.29893   MPKI: 0.57526
L2C PREFETCH  ACCESS:    4187650  HIT:    3909589  MISS:     278061  HIT %:      93.36  MISS %:    6.64002   MPKI: 5.56122
L2C DATA PREFETCH MPKI: 0
L2C INSTRUCTION PREFETCH MPKI: 5.56122
L2C WRITEBACK ACCESS:     595645  HIT:     581680  MISS:      13965  HIT %:    97.6555  MISS %:    2.34452   MPKI: 0.2793
L2C LOAD TRANSLATION ACCESS:       5441  HIT:       3539  MISS:       1902  HIT %:    65.0432  MISS %:    34.9568   MPKI: 0.03804
L2C TRANSLATION FROM L1D PREFETCHER ACCESS:       9976  HIT:       9378  MISS:        598  HIT %:    94.0056  MISS %:    5.99439   MPKI: 0.01196
L2C PREFETCH  REQUESTED:          0  ISSUED:          0  USEFUL:       2739  USELESS:     276133
L2C USEFUL LOAD PREFETCHES:       2739 PREFETCH ISSUED TO LOWER LEVEL:     278061  ACCURACY: 0.985036
L2C TIMELY PREFETCHES:       2739 LATE PREFETCHES: 0 DROPPED PREFETCHES: 0
L2C PREFETCHES SAME FILL-ORIGIN LEVEL: 0 DIFFERENT FILL-ORIGIN LEVEL: 0
L2C AVERAGE MISS LATENCY: 31.518 cycles
L2C RQ	ACCESS:    1569047	FORWARD:          0	MERGED:          0	TO_CACHE:    1568931
L2C WQ	ACCESS:     595645	FORWARD:        116	MERGED:          0	TO_CACHE:     595645
L2C PQ	ACCESS:    4187650	FORWARD:          0	MERGED:          0	TO_CACHE:    4187650

L2C Instructions Evicting Data 107200
L2C Translations Evicting Data 1375
L2C Data Evicting Data 63935
L2C Instructions Evicting Instructions 183053
L2C Translations Evicting Instructions 1062
L2C Data Evicting Instructions 97878
L2C Instructions Evicting Translations 1057
L2C Translations Evicting Translations 63
L2C Data Evicting Translations 1356
L2C Dense regions hint from L2: 0
PSCL5 TOTAL     ACCESS:      14883  HIT:      14883  MISS:          0  HIT %:        100  MISS %:          0   MPKI: 0
PSCL5 LOAD TRANSLATION ACCESS:       5233  HIT:       5233  MISS:          0  HIT %:        100  MISS %:          0   MPKI: 0
PSCL5 TRANSLATION FROM L1D PREFETCHER ACCESS:       9650  HIT:       9650  MISS:          0  HIT %:        100  MISS %:          0   MPKI: 0
PSCL5 PREFETCH  REQUESTED:          0  ISSUED:          0  USEFUL:          0  USELESS:          0
PSCL5 USEFUL LOAD PREFETCHES:          0 PREFETCH ISSUED TO LOWER LEVEL:          0  ACCURACY: -nan
PSCL5 TIMELY PREFETCHES:          0 LATE PREFETCHES: 0 DROPPED PREFETCHES: 0
PSCL5 PREFETCHES SAME FILL-ORIGIN LEVEL: 0 DIFFERENT FILL-ORIGIN LEVEL: 0

PSCL4 TOTAL     ACCESS:       7771  HIT:       7763  MISS:          8  HIT %:    99.8971  MISS %:   0.102947   MPKI: 0.00016
PSCL4 LOAD TRANSLATION ACCESS:       2889  HIT:       2881  MISS:          8  HIT %:    99.7231  MISS %:   0.276912   MPKI: 0.00016
PSCL4 TRANSLATION FROM L1D PREFETCHER ACCESS:       4882  HIT:       4882  MISS:          0  HIT %:        100  MISS %:          0   MPKI: 0
PSCL4 PREFETCH  REQUESTED:          0  ISSUED:          0  USEFUL:          0  USELESS:          0
PSCL4 USEFUL LOAD PREFETCHES:          0 PREFETCH ISSUED TO LOWER LEVEL:          0  ACCURACY: -nan
PSCL4 TIMELY PREFETCHES:          0 LATE PREFETCHES: 0 DROPPED PREFETCHES: 0
PSCL4 PREFETCHES SAME FILL-ORIGIN LEVEL: 0 DIFFERENT FILL-ORIGIN LEVEL: 0

PSCL3 TOTAL     ACCESS:      14591  HIT:      14576  MISS:         15  HIT %:    99.8972  MISS %:   0.102803   MPKI: 0.0003
PSCL3 LOAD TRANSLATION ACCESS:       5114  HIT:       5099  MISS:         15  HIT %:    99.7067  MISS %:   0.293312   MPKI: 0.0003
PSCL3 TRANSLATION FROM L1D PREFETCHER ACCESS:       9477  HIT:       9477  MISS:          0  HIT %:        100  MISS %:          0   MPKI: 0
PSCL3 PREFETCH  REQUESTED:          0  ISSUED:          0  USEFUL:          0  USELESS:          0
PSCL3 USEFUL LOAD PREFETCHES:          0 PREFETCH ISSUED TO LOWER LEVEL:          0  ACCURACY: -nan
PSCL3 TIMELY PREFETCHES:          0 LATE PREFETCHES: 0 DROPPED PREFETCHES: 0
PSCL3 PREFETCHES SAME FILL-ORIGIN LEVEL: 0 DIFFERENT FILL-ORIGIN LEVEL: 0

PSCL2 TOTAL     ACCESS:      14687  HIT:      14406  MISS:        281  HIT %:    98.0867  MISS %:    1.91326   MPKI: 0.00562
PSCL2 LOAD TRANSLATION ACCESS:       5322  HIT:       5041  MISS:        281  HIT %:      94.72  MISS %:    5.27997   MPKI: 0.00562
PSCL2 TRANSLATION FROM L1D PREFETCHER ACCESS:       9365  HIT:       9365  MISS:          0  HIT %:        100  MISS %:          0   MPKI: 0
PSCL2 PREFETCH  REQUESTED:          0  ISSUED:          0  USEFUL:          0  USELESS:          0
PSCL2 USEFUL LOAD PREFETCHES:          0 PREFETCH ISSUED TO LOWER LEVEL:          0  ACCURACY: -nan
PSCL2 TIMELY PREFETCHES:          0 LATE PREFETCHES: 0 DROPPED PREFETCHES: 0
PSCL2 PREFETCHES SAME FILL-ORIGIN LEVEL: 0 DIFFERENT FILL-ORIGIN LEVEL: 0

LLC TOTAL     ACCESS:     500073  HIT:     491564  MISS:       8509  HIT %:    98.2984  MISS %:    1.70155   MPKI: 0.17018
LLC LOAD      ACCESS:     147655  HIT:     141107  MISS:       6548  HIT %:    95.5653  MISS %:    4.43466   MPKI: 0.13096
LLC RFO       ACCESS:      28763  HIT:      26987  MISS:       1776  HIT %:    93.8254  MISS %:     6.1746   MPKI: 0.03552
LLC PREFETCH  ACCESS:     278061  HIT:     277958  MISS:        103  HIT %:     99.963  MISS %:  0.0370422   MPKI: 0.00206
LLC WRITEBACK ACCESS:      43094  HIT:      43035  MISS:         59  HIT %:    99.8631  MISS %:    0.13691   MPKI: 0.00118
LLC LOAD TRANSLATION ACCESS:       1902  HIT:       1881  MISS:         21  HIT %:    98.8959  MISS %:     1.1041   MPKI: 0.00042
LLC TRANSLATION FROM L1D PREFETCHER ACCESS:        598  HIT:        596  MISS:          2  HIT %:    99.6656  MISS %:   0.334448   MPKI: 4e-05
LLC PREFETCH  REQUESTED:          0  ISSUED:          0  USEFUL:         12  USELESS:        105
LLC USEFUL LOAD PREFETCHES:         12 PREFETCH ISSUED TO LOWER LEVEL:        103  ACCURACY: 11.6505
LLC TIMELY PREFETCHES:         12 LATE PREFETCHES: 0 DROPPED PREFETCHES: 0
LLC PREFETCHES SAME FILL-ORIGIN LEVEL: 0 DIFFERENT FILL-ORIGIN LEVEL: 0
LLC AVERAGE MISS LATENCY: 132.777 cycles
LLC RQ	ACCESS:     178918	FORWARD:          0	MERGED:          0	TO_CACHE:     178918
LLC WQ	ACCESS:      43094	FORWARD:          0	MERGED:          0	TO_CACHE:      43094
LLC PQ	ACCESS:     278061	FORWARD:          0	MERGED:          0	TO_CACHE:     278061

LLC Dense regions hint to LLC: 0

RAW hits: 1079439
Loads Generated: 12389772
Loads sent to L1D: 11310332
Stores Generated: 6823741
Stores sent to L1D: 6823740
Major fault: 0 Minor fault: 2136
Allocated PAGES: 2136
I-Shadow cache 408 bytes
Touched + WorthPF tables 6144 bytes 
MMA filter 174 bytes 
FNL filter 272 bytes 
TOTAL PREFETCHER STORAGE SIZE: 25174 bytes
CPU 0 L1I next line prefetcher final stats
[Bingo] PHT Access: 0
[Bingo] PHT Hit PC+Addr: 0
[Bingo] PHT Hit PC+Offs: 0
[Bingo] PHT Miss: 0
[Bingo] Prefetch PC+Addr: 0
[Bingo] Prefetch PC+Offs: 0
[Bingo] Useful PC+Addr: 0
[Bingo] Useful PC+Offs: 0
[Bingo] Useless PC+Addr: 0
[Bingo] Useless PC+Offs: 0
[Bingo] L1 Prefetch per Region: -nan
[Bingo] L2 Prefetch per Region: -nan
[Bingo] L3 Prefetch per Region: -nan
[Bingo] No Prefetch per Region: -nan
[Bingo] Number of Voters Mean: -nan
[Bingo] Number of Voters SD: -nan
PHT read accesses: 0
PHT write accesses: 0
AT read accesses: 0
AT write accesses: 0
FT read accesses: 0
FT write accesses: 0
PS read accesses: 0
PS write accesses: 0
PHT tag read accesses: 0
PHT tag write accesses: 0
AT tag read accesses: 7535104
AT tag write accesses: 0
FT tag read accesses: 7535104
FT tag write accesses: 0
PS tag read accesses: 0
PS tag write accesses: 0

DRAM Statistics
 CHANNEL 0
 RQ ROW_BUFFER_HIT:       3374  ROW_BUFFER_MISS:       5075
 DBUS_CONGESTED:          1
 WQ ROW_BUFFER_HIT:         87  ROW_BUFFER_MISS:        847  FULL:          0

 AVG_CONGESTED_CYCLE: 7
 All warmup complete: 2
Channel 0 Bank busy for read cycles: 0
Channel 0 Bank busy for write cycles: 0
Channel 0
Rank 0
0banks busy for read cycles: 79131699
0banks busy for write cycles: 558
1banks busy for read cycles: 677691
1banks busy for write cycles: 130183
2banks busy for read cycles: 37897
2banks busy for write cycles: 39125
3banks busy for read cycles: 18268
3banks busy for write cycles: 17413
4banks busy for read cycles: 4075
4banks busy for write cycles: 7234
5banks busy for read cycles: 2751
5banks busy for write cycles: 4448
6banks busy for read cycles: 3300
6banks busy for write cycles: 1194
7banks busy for read cycles: 3175
7banks busy for write cycles: 273
8banks busy for read cycles: 6199
8banks busy for write cycles: 0

CPU 0 Branch Prediction Accuracy: 99.8445% MPKI: 0.29148 Average ROB Occupancy at Mispredict: 80.8319
Branch types
NOT_BRANCH: 40627788 81.2556%
BRANCH_DIRECT_JUMP: 490939 0.981878%
BRANCH_INDIRECT: 175853 0.351706%
BRANCH_CONDITIONAL: 6321387 12.6428%
BRANCH_DIRECT_CALL: 1002064 2.00413%
BRANCH_INDIRECT_CALL: 189782 0.379564%
BRANCH_RETURN: 1191846 2.38369%
BRANCH_OTHER: 0 0%

DRAM PAGES: 1048576
Allocated PAGES: 2136
