
*** ChampSim Multicore Out-of-Order Simulator ***

Warmup Instructions: 50000000
Simulation Instructions: 50000000
Number of CPUs: 1
LLC sets: 2048
LLC ways: 16
Off-chip DRAM Size: 4096 MB Channels: 1 Width: 64-bit Data Rate: 6400 MT/s
CPU 0 runs ../IPC-traces//server_013.champsimtrace.xz
.xz
NUM_OF_IPS_IN_CRITICAL_IP_TRAINING: 64
NUM_OF_CRITICAL_IP_TRAINING_TABLE_WAYS: 2
NUM_OF_CRITICAL_IP_TRAINING_TABLE_SETS: 32
WOBBLY_CRITICAL_IP_CACHE_SETS: 32
WOBBLY_CRITICAL_IP_CACHE_WAYS: 4
BTB has LRU replacement policy
ITLB has LRU replacement policy
DTLB has LRU replacement policy
STLB has LRU replacement policy
CPU 0 L1I next line prefetcher
L1I has LRU replacement policy
L1D has LRU replacement policy
Bingo PHT WAYS: 16 and PHT_SIZE: 16384
Initialize SRRIP state for L2C
Initialize DRRIP state for LLC
Heartbeat CPU 0 instructions: 10000000 cycles: 2764284 heartbeat IPC: 3.61757 cumulative IPC: 3.61757 (Simulation time: 0 hr 2 min 44 sec) 
Heartbeat CPU 0 instructions: 20000001 cycles: 5519328 heartbeat IPC: 3.62971 cumulative IPC: 3.62363 (Simulation time: 0 hr 5 min 7 sec) 
Heartbeat CPU 0 instructions: 30000002 cycles: 8274948 heartbeat IPC: 3.62895 cumulative IPC: 3.6254 (Simulation time: 0 hr 7 min 24 sec) 
Heartbeat CPU 0 instructions: 40000003 cycles: 11029492 heartbeat IPC: 3.63037 cumulative IPC: 3.62664 (Simulation time: 0 hr 9 min 31 sec) 
Heartbeat CPU 0 instructions: 50000000 cycles: 13785824 heartbeat IPC: 3.62801 cumulative IPC: 3.62691 (Simulation time: 0 hr 11 min 31 sec) 

Warmup complete CPU 0 instructions: 50000004 cycles: 13785825 (Simulation time: 0 hr 11 min 31 sec) 

% increase in all ip prefetch 385.867
% increase in all ip prefetch 5.67996
% increase in all ip prefetch -1.1184
Heartbeat CPU 0 instructions: 60000000 cycles: 28308199 heartbeat IPC: 0.688593 cumulative IPC: 0.688592 (Simulation time: 0 hr 14 min 4 sec) 
Heartbeat CPU 0 instructions: 70000003 cycles: 43056605 heartbeat IPC: 0.67804 cumulative IPC: 0.683275 (Simulation time: 0 hr 16 min 32 sec) 
Heartbeat CPU 0 instructions: 80000003 cycles: 57291505 heartbeat IPC: 0.702499 cumulative IPC: 0.689565 (Simulation time: 0 hr 18 min 58 sec) 
Heartbeat CPU 0 instructions: 90000003 cycles: 71664945 heartbeat IPC: 0.695728 cumulative IPC: 0.691095 (Simulation time: 0 hr 21 min 25 sec) 
Heartbeat CPU 0 instructions: 100000000 cycles: 86029822 heartbeat IPC: 0.696142 cumulative IPC: 0.692099 (Simulation time: 0 hr 23 min 48 sec) 
Finished CPU 0 instructions: 50000000 cycles: 72243998 cumulative IPC: 0.692099 (Simulation time: 0 hr 23 min 48 sec) 

ChampSim completed all CPUs

Region of Interest Statistics

CPU 0 cumulative IPC: 0.692099 instructions: 50000000 cycles: 72243998

CPU 0 Average Load ROB stall cycles: 1.92556e+07
CPU 0 Fraction of times ROB stalled by Loads: 38.5233
CPU 0 Percentage of Load stall cycles in Total stall cycles: 2.2152e+08
Issued all: 27662230
Issued LT all: 21528359
rob_not_full_when_issued_lt_all: 20300428
Issued LT one: 17160719
rob_not_full_when_issued_lt_one: 16096464
critical_ip_candidate_identification_operations: 5219256
critical_ip_candidate_identification_operation_per_cycle: 0.0722448
 Total stall cycles: 58884222
 Total load stall cycles: 130440359673614
Unique Load IPs: 32247
CPU 0 NUM of IPS identified critical: 7
CPU 0 Num of Load IPs stalling ROB: 25437
Threshold modification factor: -2
Max PIST entries: 64
Min PIST entries: 0
Avg PIST entries: 32
Trouble in retire width: 0.890606
MaC = Marked as critical.
lt_50_percent_before_Mac: 7
gt_90_percent_before_Mac: 0
gt_75_percent_before_Mac: 0
gt_50_percent_before_Mac: 0
stall_proportion_bin_same_before_after: 0
stall_proportion_bin_lower_before_after: 0
stall_proportion_bin_upper_before_after: 0
average_stall_proportion_before: 0.0527885
average_stall_proportion_after: 0.0552258
Critical IP stalls, total frequency: 49510
Non-critical IP stalls, total frequency: 2560118
Total Freq all stalling IPs: 2609628
Critical_IP_Detector_Accuracy_70: 0.857143
Critical_IP_Detector_Accuracy_80: 1
Critical_IP_Detector_Accuracy_90: 1
Critical_IP_Detector_Coverage_70: 0.00466926
Critical_IP_Detector_Coverage_80: 0.00249288
Critical_IP_Detector_Coverage_90: 0.0011599
stat_90_percent_critical_ip_stalls_freq: 2348698
stat_90_percent_non_critical_ip_stalls_freq: 260930
AVERAGE_ROB_Occupancy_90_Percent_Critical_IP_Stalls: 69.6375
AVERAGE_ROB_Occupancy_90_Percent_Non_Critical_IP_Stalls: 61.6467
Critical_IP_ROB_Stalls_Bucket_0: 5447
Non-critical_IP_ROB_Stalls_Bucket_0: 1341622
Critical_IP_ROB_Stalls_Bucket_1: 5651
Non-critical_IP_ROB_Stalls_Bucket_1: 744270
Critical_IP_ROB_Stalls_Bucket_2: 5686
Non-critical_IP_ROB_Stalls_Bucket_2: 274418
Critical_IP_ROB_Stalls_Bucket_3: 4091
Non-critical_IP_ROB_Stalls_Bucket_3: 92059
Critical_IP_ROB_Stalls_Bucket_4: 2984
Non-critical_IP_ROB_Stalls_Bucket_4: 45844
Critical_IP_ROB_Stalls_Bucket_5: 2778
Non-critical_IP_ROB_Stalls_Bucket_5: 25203
Critical_IP_ROB_Stalls_Bucket_6: 22873
Non-critical_IP_ROB_Stalls_Bucket_6: 36702
0 => IPs accounting for >50 percent of stalls, 1 => 55, 2 => 60, 3 => 65 and so on till 90.
percent50: 50.0253 num IPs:  311
percent55: 55.0256 num IPs: 459
percent60: 60.0119 num IPs: 655
percent65: 65.0009 num IPs: 912
percent70: 70.0045 num IPs: 1285
percent75: 75.0007 num IPs: 1879
percent80: 80.0019 num IPs: 2808
percent85: 85.0004 num IPs: 4096
percent90: 90.0017 num IPs: 6035
Critical_ROB_Stalls_Percent_0_Bucket_0: 631798
Non-critical_ROB_Stalls_Percent_0_Bucket_0: 715271
Critical_ROB_Stalls_Percent_0_Bucket_1: 426248
Non-critical_ROB_Stalls_Percent_0_Bucket_1: 323673
Critical_ROB_Stalls_Percent_0_Bucket_2: 156205
Non-critical_ROB_Stalls_Percent_0_Bucket_2: 123899
Critical_ROB_Stalls_Percent_0_Bucket_3: 37015
Non-critical_ROB_Stalls_Percent_0_Bucket_3: 59135
Critical_ROB_Stalls_Percent_0_Bucket_4: 17136
Non-critical_ROB_Stalls_Percent_0_Bucket_4: 31692
Critical_ROB_Stalls_Percent_0_Bucket_5: 8276
Non-critical_ROB_Stalls_Percent_0_Bucket_5: 19705
Critical_ROB_Stalls_Percent_0_Bucket_6: 28795
Non-critical_ROB_Stalls_Percent_0_Bucket_6: 30780
Critical_ROB_Stalls_Percent_1_Bucket_0: 688257
Non-critical_ROB_Stalls_Percent_1_Bucket_0: 658812
Critical_ROB_Stalls_Percent_1_Bucket_1: 474131
Non-critical_ROB_Stalls_Percent_1_Bucket_1: 275790
Critical_ROB_Stalls_Percent_1_Bucket_2: 171549
Non-critical_ROB_Stalls_Percent_1_Bucket_2: 108555
Critical_ROB_Stalls_Percent_1_Bucket_3: 42583
Non-critical_ROB_Stalls_Percent_1_Bucket_3: 53567
Critical_ROB_Stalls_Percent_1_Bucket_4: 19894
Non-critical_ROB_Stalls_Percent_1_Bucket_4: 28934
Critical_ROB_Stalls_Percent_1_Bucket_5: 9859
Non-critical_ROB_Stalls_Percent_1_Bucket_5: 18122
Critical_ROB_Stalls_Percent_1_Bucket_6: 29689
Non-critical_ROB_Stalls_Percent_1_Bucket_6: 29886
Critical_ROB_Stalls_Percent_2_Bucket_0: 745344
Non-critical_ROB_Stalls_Percent_2_Bucket_0: 601725
Critical_ROB_Stalls_Percent_2_Bucket_1: 516069
Non-critical_ROB_Stalls_Percent_2_Bucket_1: 233852
Critical_ROB_Stalls_Percent_2_Bucket_2: 185317
Non-critical_ROB_Stalls_Percent_2_Bucket_2: 94787
Critical_ROB_Stalls_Percent_2_Bucket_3: 49470
Non-critical_ROB_Stalls_Percent_2_Bucket_3: 46680
Critical_ROB_Stalls_Percent_2_Bucket_4: 23544
Non-critical_ROB_Stalls_Percent_2_Bucket_4: 25284
Critical_ROB_Stalls_Percent_2_Bucket_5: 13187
Non-critical_ROB_Stalls_Percent_2_Bucket_5: 14794
Critical_ROB_Stalls_Percent_2_Bucket_6: 33154
Non-critical_ROB_Stalls_Percent_2_Bucket_6: 26421
Critical_ROB_Stalls_Percent_3_Bucket_0: 812421
Non-critical_ROB_Stalls_Percent_3_Bucket_0: 534648
Critical_ROB_Stalls_Percent_3_Bucket_1: 554571
Non-critical_ROB_Stalls_Percent_3_Bucket_1: 195350
Critical_ROB_Stalls_Percent_3_Bucket_2: 196488
Non-critical_ROB_Stalls_Percent_3_Bucket_2: 83616
Critical_ROB_Stalls_Percent_3_Bucket_3: 54124
Non-critical_ROB_Stalls_Percent_3_Bucket_3: 42026
Critical_ROB_Stalls_Percent_3_Bucket_4: 26475
Non-critical_ROB_Stalls_Percent_3_Bucket_4: 22353
Critical_ROB_Stalls_Percent_3_Bucket_5: 15645
Non-critical_ROB_Stalls_Percent_3_Bucket_5: 12336
Critical_ROB_Stalls_Percent_3_Bucket_6: 36557
Non-critical_ROB_Stalls_Percent_3_Bucket_6: 23018
Critical_ROB_Stalls_Percent_4_Bucket_0: 884405
Non-critical_ROB_Stalls_Percent_4_Bucket_0: 462664
Critical_ROB_Stalls_Percent_4_Bucket_1: 584983
Non-critical_ROB_Stalls_Percent_4_Bucket_1: 164938
Critical_ROB_Stalls_Percent_4_Bucket_2: 208475
Non-critical_ROB_Stalls_Percent_4_Bucket_2: 71629
Critical_ROB_Stalls_Percent_4_Bucket_3: 60550
Non-critical_ROB_Stalls_Percent_4_Bucket_3: 35600
Critical_ROB_Stalls_Percent_4_Bucket_4: 30038
Non-critical_ROB_Stalls_Percent_4_Bucket_4: 18790
Critical_ROB_Stalls_Percent_4_Bucket_5: 18396
Non-critical_ROB_Stalls_Percent_4_Bucket_5: 9585
Critical_ROB_Stalls_Percent_4_Bucket_6: 40010
Non-critical_ROB_Stalls_Percent_4_Bucket_6: 19565
Critical_ROB_Stalls_Percent_5_Bucket_0: 955443
Non-critical_ROB_Stalls_Percent_5_Bucket_0: 391626
Critical_ROB_Stalls_Percent_5_Bucket_1: 618759
Non-critical_ROB_Stalls_Percent_5_Bucket_1: 131162
Critical_ROB_Stalls_Percent_5_Bucket_2: 220723
Non-critical_ROB_Stalls_Percent_5_Bucket_2: 59381
Critical_ROB_Stalls_Percent_5_Bucket_3: 65837
Non-critical_ROB_Stalls_Percent_5_Bucket_3: 30313
Critical_ROB_Stalls_Percent_5_Bucket_4: 33905
Non-critical_ROB_Stalls_Percent_5_Bucket_4: 14923
Critical_ROB_Stalls_Percent_5_Bucket_5: 20025
Non-critical_ROB_Stalls_Percent_5_Bucket_5: 7956
Critical_ROB_Stalls_Percent_5_Bucket_6: 42549
Non-critical_ROB_Stalls_Percent_5_Bucket_6: 17026
Critical_ROB_Stalls_Percent_6_Bucket_0: 1031276
Non-critical_ROB_Stalls_Percent_6_Bucket_0: 315793
Critical_ROB_Stalls_Percent_6_Bucket_1: 650632
Non-critical_ROB_Stalls_Percent_6_Bucket_1: 99289
Critical_ROB_Stalls_Percent_6_Bucket_2: 232436
Non-critical_ROB_Stalls_Percent_6_Bucket_2: 47668
Critical_ROB_Stalls_Percent_6_Bucket_3: 71254
Non-critical_ROB_Stalls_Percent_6_Bucket_3: 24896
Critical_ROB_Stalls_Percent_6_Bucket_4: 37002
Non-critical_ROB_Stalls_Percent_6_Bucket_4: 11826
Critical_ROB_Stalls_Percent_6_Bucket_5: 21221
Non-critical_ROB_Stalls_Percent_6_Bucket_5: 6760
Critical_ROB_Stalls_Percent_6_Bucket_6: 43928
Non-critical_ROB_Stalls_Percent_6_Bucket_6: 15647
Critical_ROB_Stalls_Percent_7_Bucket_0: 1104798
Non-critical_ROB_Stalls_Percent_7_Bucket_0: 242271
Critical_ROB_Stalls_Percent_7_Bucket_1: 677001
Non-critical_ROB_Stalls_Percent_7_Bucket_1: 72920
Critical_ROB_Stalls_Percent_7_Bucket_2: 243760
Non-critical_ROB_Stalls_Percent_7_Bucket_2: 36344
Critical_ROB_Stalls_Percent_7_Bucket_3: 76952
Non-critical_ROB_Stalls_Percent_7_Bucket_3: 19198
Critical_ROB_Stalls_Percent_7_Bucket_4: 40531
Non-critical_ROB_Stalls_Percent_7_Bucket_4: 8297
Critical_ROB_Stalls_Percent_7_Bucket_5: 23399
Non-critical_ROB_Stalls_Percent_7_Bucket_5: 4582
Critical_ROB_Stalls_Percent_7_Bucket_6: 51747
Non-critical_ROB_Stalls_Percent_7_Bucket_6: 7828
Critical_ROB_Stalls_Percent_8_Bucket_0: 1186483
Non-critical_ROB_Stalls_Percent_8_Bucket_0: 160586
Critical_ROB_Stalls_Percent_8_Bucket_1: 702293
Non-critical_ROB_Stalls_Percent_8_Bucket_1: 47628
Critical_ROB_Stalls_Percent_8_Bucket_2: 254491
Non-critical_ROB_Stalls_Percent_8_Bucket_2: 25613
Critical_ROB_Stalls_Percent_8_Bucket_3: 83024
Non-critical_ROB_Stalls_Percent_8_Bucket_3: 13126
Critical_ROB_Stalls_Percent_8_Bucket_4: 42979
Non-critical_ROB_Stalls_Percent_8_Bucket_4: 5849
Critical_ROB_Stalls_Percent_8_Bucket_5: 24784
Non-critical_ROB_Stalls_Percent_8_Bucket_5: 3197
Critical_ROB_Stalls_Percent_8_Bucket_6: 54644
Non-critical_ROB_Stalls_Percent_8_Bucket_6: 4931
Average ROB occupancy Load Stall Begin: 56.9994
Average ROB occupancy Load Stall End: 68.8385
Min ROB occupancy Load Stall Begin: 1
Max ROB occupancy Load Stall Begin: 352
Min ROB occupancy Load Stall End: 1
Max ROB occupancy Load Stall End: 352
Average ROB occupancy Critical Load Stall Begin: 219.426
Average ROB occupancy Critical Load Stall End: 225.844
Min ROB occupancy Critical Load Stall Begin: 2
Max ROB occupancy Critical Load Stall Begin: 352
Min ROB occupancy Critical Load Stall End: 2
Max ROB occupancy Critical Load Stall End: 352
 ROB Load Stall Begin Bucket Count 0: 1641329
 ROB Load Stall End Bucket Count 0: 1347069
 ROB Critical Load Stall Begin Bucket Count 0: 6320
 ROB Critical Load Stall End Bucket Count 0: 5341
 ROB Load Stall Begin Bucket Count 1: 570459
 ROB Load Stall End Bucket Count 1: 749921
 ROB Critical Load Stall Begin Bucket Count 1: 5616
 ROB Critical Load Stall End Bucket Count 1: 5495
 ROB Load Stall Begin Bucket Count 2: 213805
 ROB Load Stall End Bucket Count 2: 280104
 ROB Critical Load Stall Begin Bucket Count 2: 5369
 ROB Critical Load Stall End Bucket Count 2: 5509
 ROB Load Stall Begin Bucket Count 3: 71071
 ROB Load Stall End Bucket Count 3: 96150
 ROB Critical Load Stall Begin Bucket Count 3: 3599
 ROB Critical Load Stall End Bucket Count 3: 3911
 ROB Load Stall Begin Bucket Count 4: 38049
 ROB Load Stall End Bucket Count 4: 48828
 ROB Critical Load Stall Begin Bucket Count 4: 2750
 ROB Critical Load Stall End Bucket Count 4: 2839
 ROB Load Stall Begin Bucket Count 5: 23480
 ROB Load Stall End Bucket Count 5: 27981
 ROB Critical Load Stall Begin Bucket Count 5: 2561
 ROB Critical Load Stall End Bucket Count 5: 2632
 ROB Load Stall Begin Bucket Count 6: 51435
 ROB Load Stall End Bucket Count 6: 59575
 ROB Critical Load Stall Begin Bucket Count 6: 19900
 ROB Critical Load Stall End Bucket Count 6: 20388
PIST Tag Read Accesses: 3597044
PIST Read Accesses: 1798522
PIST Tag Write Accesses: 3597044
PIST Write Accesses: 1798522
Criticality detector called times: 2563513
Max global_stall_cycles_count: 3313492
Threshold Modified: 2 times, factor: -2
Sturdy critical IP cache stats: 
 Unused entries: 0
CIC Tag Read Accesses: 0
CIC Read Accesses: 0
CIC Tag Write Accesses: 0
CIC Write Accesses: 0
Wobbly critical IP cache stats: 
 Unused entries: 121
CIC Tag Read Accesses: 69243730
CIC Read Accesses: 0
CIC Tag Write Accesses: 18
CIC Write Accesses: 0
ITLB TOTAL     ACCESS:    8976366  HIT:    8722126  MISS:     254240  HIT %:    97.1677  MISS %:    2.83233   MPKI: 5.0848
ITLB LOAD TRANSLATION ACCESS:    7642903  HIT:    7565232  MISS:      77671  HIT %:    98.9838  MISS %:    1.01625   MPKI: 1.55342
ITLB TRANSLATION FROM L1D PREFETCHER ACCESS:    1333463  HIT:    1156894  MISS:     176569  HIT %:    86.7586  MISS %:    13.2414   MPKI: 3.53138
ITLBprefetch_cycle_count: 0 prefetches_per_prefetch_cycle: -nan
ITLB PREFETCH  REQUESTED:          0  ISSUED:          0  USEFUL:     141320  USELESS:      35261
ITLB USEFUL LOAD PREFETCHES:     141320 PREFETCH ISSUED TO LOWER LEVEL:          0  ACCURACY: inf
ITLB TIMELY PREFETCHES:     141320 LATE PREFETCHES: 1027 DROPPED PREFETCHES: 6788
ITLB PREFETCHES SAME FILL-ORIGIN LEVEL: 0 DIFFERENT FILL-ORIGIN LEVEL: 0
ITLB AVERAGE MISS LATENCY: 220582 cycles
ITLB RQ	ACCESS:   12521774	FORWARD:          0	MERGED:    3503600	TO_CACHE:    9018174

DTLB TOTAL     ACCESS:    9354894  HIT:    8698967  MISS:     655927  HIT %:    92.9884  MISS %:    7.01159   MPKI: 13.1185
DTLB LOAD TRANSLATION ACCESS:    9354894  HIT:    8698967  MISS:     655927  HIT %:    92.9884  MISS %:    7.01159   MPKI: 13.1185
DTLBprefetch_cycle_count: 0 prefetches_per_prefetch_cycle: -nan
DTLB PREFETCH  REQUESTED:          0  ISSUED:          0  USEFUL:          0  USELESS:          0
DTLB USEFUL LOAD PREFETCHES:          0 PREFETCH ISSUED TO LOWER LEVEL:          0  ACCURACY: -nan
DTLB TIMELY PREFETCHES:          0 LATE PREFETCHES: 0 DROPPED PREFETCHES: 0
DTLB PREFETCHES SAME FILL-ORIGIN LEVEL: 0 DIFFERENT FILL-ORIGIN LEVEL: 0
DTLB AVERAGE MISS LATENCY: 15.225 cycles
DTLB RQ	ACCESS:   11870696	FORWARD:          0	MERGED:    2473658	TO_CACHE:    9397038

STLB TOTAL     ACCESS:     910160  HIT:     784706  MISS:     125454  HIT %:    86.2163  MISS %:    13.7837   MPKI: 2.50908
STLB LOAD TRANSLATION ACCESS:     732571  HIT:     635589  MISS:      96982  HIT %:    86.7614  MISS %:    13.2386   MPKI: 1.93964
STLB TRANSLATION FROM L1D PREFETCHER ACCESS:     177589  HIT:     149117  MISS:      28472  HIT %:    83.9675  MISS %:    16.0325   MPKI: 0.56944
STLBprefetch_cycle_count: 0 prefetches_per_prefetch_cycle: -nan
STLB PREFETCH  REQUESTED:          0  ISSUED:          0  USEFUL:      15645  USELESS:      12842
STLB USEFUL LOAD PREFETCHES:      15645 PREFETCH ISSUED TO LOWER LEVEL:          0  ACCURACY: inf
STLB TIMELY PREFETCHES:      15645 LATE PREFETCHES: 7 DROPPED PREFETCHES: 6788
STLB PREFETCHES SAME FILL-ORIGIN LEVEL: 0 DIFFERENT FILL-ORIGIN LEVEL: 0
STLB AVERAGE MISS LATENCY: 46.8229 cycles
STLB RQ	ACCESS:     916956	FORWARD:          0	MERGED:          0	TO_CACHE:     916956

STLB Hit, L1D data hit: 0
STLB Hit, L2C data hit: 0
STLB Hit, LLC data hit: 0
STLB Hit, LLC data miss: 0
STLB STLB hints to L2: 0
L1D TOTAL     ACCESS:   11712057  HIT:   11065156  MISS:     646901  HIT %:    94.4766  MISS %:    5.52338   MPKI: 12.938
L1D LOAD      ACCESS:    6765522  HIT:    6207196  MISS:     558326  HIT %:    91.7475  MISS %:    8.25252   MPKI: 11.1665
L1D RFO       ACCESS:    4946535  HIT:    4857960  MISS:      88575  HIT %:    98.2094  MISS %:    1.79065   MPKI: 1.7715
L1Dprefetch_cycle_count: 0 prefetches_per_prefetch_cycle: -nan
L1D PREFETCH  REQUESTED:          0  ISSUED:          0  USEFUL:          0  USELESS:          0
L1D USEFUL LOAD PREFETCHES:          0 PREFETCH ISSUED TO LOWER LEVEL:          0  ACCURACY: -nan
L1D TIMELY PREFETCHES:          0 LATE PREFETCHES: 0 DROPPED PREFETCHES: 0
L1D PREFETCHES SAME FILL-ORIGIN LEVEL: 0 DIFFERENT FILL-ORIGIN LEVEL: 0
L1D AVERAGE MISS LATENCY: 49.0289 cycles
L1D RQ	ACCESS:   10426829	FORWARD:          0	MERGED:    3533750	TO_CACHE:    6806101
L1D WQ	ACCESS:    5191026	FORWARD:      86978	MERGED:     126431	TO_CACHE:    5064595

L1D UNIQUE REGIONS ACCESSED: 0
L1D REGIONS CONFLICTS: 0
L1D Cross Page Prefetch Requests: 0
L1D Same Page Prefetch Requests: 0
L1D ROI Sum of L1D PQ occupancy: 0
L1D PREFETCHES PUSHED FROM L2C: 0
L1I TOTAL     ACCESS:   12353224  HIT:   10249925  MISS:    2103299  HIT %:    82.9737  MISS %:    17.0263   MPKI: 42.066
L1I LOAD      ACCESS:    9393103  HIT:    9112191  MISS:     280912  HIT %:    97.0094  MISS %:    2.99062   MPKI: 5.61824
L1I PREFETCH  ACCESS:    2960121  HIT:    1137734  MISS:    1822387  HIT %:    38.4354  MISS %:    61.5646   MPKI: 36.4477
L1Iprefetch_cycle_count: 0 prefetches_per_prefetch_cycle: inf
L1I PREFETCH  REQUESTED:    3201258  ISSUED:    3192211  USEFUL:    1212721  USELESS:     609704
L1I USEFUL LOAD PREFETCHES:    1212721 PREFETCH ISSUED TO LOWER LEVEL:    1858603  ACCURACY: 65.2491
L1I TIMELY PREFETCHES:    1212721 LATE PREFETCHES: 35485 DROPPED PREFETCHES: 22483
L1I PREFETCHES SAME FILL-ORIGIN LEVEL: 1858603 DIFFERENT FILL-ORIGIN LEVEL: 0
L1I AVERAGE MISS LATENCY: 839677 cycles
L1I RQ	ACCESS:   13659600	FORWARD:          0	MERGED:    4238296	TO_CACHE:    9421304
L1I PQ	ACCESS:    3192211	FORWARD:          0	MERGED:      91741	TO_CACHE:    3100470

BTB TOTAL     ACCESS:    4435958  HIT:    3610045  MISS:     825913  HIT %:    81.3814  MISS %:    18.6186   MPKI: 16.5183
BTB BRANCH_DIRECT_JUMP	ACCESS:     463697  HIT:     397748  MISS:      65949
BTB BRANCH_INDIRECT	ACCESS:     146542  HIT:     112914  MISS:      33628
BTB BRANCH_CONDITIONAL	ACCESS:    2131256  HIT:    1856337  MISS:     274919
BTB BRANCH_DIRECT_CALL	ACCESS:     665004  HIT:     539799  MISS:     125205
BTB BRANCH_INDIRECT_CALL	ACCESS:     165150  HIT:     152297  MISS:      12853
BTB BRANCH_RETURN	ACCESS:     864309  HIT:     550950  MISS:     313359
BTB BRANCH_OTHER ACCESS:          0  HIT:          0  MISS:          0

L2C TOTAL     ACCESS:    3189179  HIT:    1949127  MISS:    1240052  HIT %:    61.1169  MISS %:    38.8831   MPKI: 24.801
L2C LOAD      ACCESS:     803732  HIT:     381313  MISS:     422419  HIT %:    47.4428  MISS %:    52.5572   MPKI: 8.44838
L2C DATA LOAD MPKI: 6.44542
L2C INSTRUCTION LOAD MPKI: 2.00296
L2C RFO       ACCESS:      88567  HIT:      42116  MISS:      46451  HIT %:    47.5527  MISS %:    52.4473   MPKI: 0.92902
L2C PREFETCH  ACCESS:    1869603  HIT:    1186530  MISS:     683073  HIT %:    63.4643  MISS %:    36.5357   MPKI: 13.6615
L2C DATA PREFETCH MPKI: 0.11242
L2C INSTRUCTION PREFETCH MPKI: 13.549
L2C WRITEBACK ACCESS:     256063  HIT:     233840  MISS:      22223  HIT %:    91.3213  MISS %:    8.67872   MPKI: 0.44446
L2C LOAD TRANSLATION ACCESS:     127324  HIT:      73366  MISS:      53958  HIT %:    57.6215  MISS %:    42.3785   MPKI: 1.07916
L2C TRANSLATION FROM L1D PREFETCHER ACCESS:      43890  HIT:      31962  MISS:      11928  HIT %:     72.823  MISS %:     27.177   MPKI: 0.23856
L2Cprefetch_cycle_count: 5141 prefetches_per_prefetch_cycle: 2.43377
L2C PREFETCH  REQUESTED:      12512  ISSUED:      12512  USEFUL:      23007  USELESS:     672558
L2C USEFUL LOAD PREFETCHES:      23007 PREFETCH ISSUED TO LOWER LEVEL:     683220  ACCURACY: 3.36744
L2C TIMELY PREFETCHES:      23007 LATE PREFETCHES: 147 DROPPED PREFETCHES: 0
L2C PREFETCHES SAME FILL-ORIGIN LEVEL: 5767 DIFFERENT FILL-ORIGIN LEVEL: 0
L2C AVERAGE MISS LATENCY: 39.4396 cycles
L2C RQ	ACCESS:    1063542	FORWARD:          0	MERGED:          0	TO_CACHE:    1063513
L2C WQ	ACCESS:     256063	FORWARD:         29	MERGED:          0	TO_CACHE:     256063
L2C PQ	ACCESS:    1870384	FORWARD:          0	MERGED:          0	TO_CACHE:    1870384

L2C Instructions Evicting Data 248630
L2C Translations Evicting Data 21020
L2C Data Evicting Data 119560
L2C Instructions Evicting Instructions 486855
L2C Translations Evicting Instructions 42072
L2C Data Evicting Instructions 235032
L2C Instructions Evicting Translations 42115
L2C Translations Evicting Translations 2794
L2C Data Evicting Translations 19751
L2C Dense regions hint from L2: 0
PSCL5 TOTAL     ACCESS:     132242  HIT:     132242  MISS:          0  HIT %:        100  MISS %:          0   MPKI: 0
PSCL5 LOAD TRANSLATION ACCESS:      96975  HIT:      96975  MISS:          0  HIT %:        100  MISS %:          0   MPKI: 0
PSCL5 TRANSLATION FROM L1D PREFETCHER ACCESS:      35267  HIT:      35267  MISS:          0  HIT %:        100  MISS %:          0   MPKI: 0
PSCL5prefetch_cycle_count: 0 prefetches_per_prefetch_cycle: -nan
PSCL5 PREFETCH  REQUESTED:          0  ISSUED:          0  USEFUL:          0  USELESS:          0
PSCL5 USEFUL LOAD PREFETCHES:          0 PREFETCH ISSUED TO LOWER LEVEL:          0  ACCURACY: -nan
PSCL5 TIMELY PREFETCHES:          0 LATE PREFETCHES: 0 DROPPED PREFETCHES: 0
PSCL5 PREFETCHES SAME FILL-ORIGIN LEVEL: 0 DIFFERENT FILL-ORIGIN LEVEL: 0

PSCL4 TOTAL     ACCESS:     126658  HIT:     126321  MISS:        337  HIT %:    99.7339  MISS %:   0.266071   MPKI: 0.00674
PSCL4 LOAD TRANSLATION ACCESS:      93446  HIT:      93109  MISS:        337  HIT %:    99.6394  MISS %:   0.360636   MPKI: 0.00674
PSCL4 TRANSLATION FROM L1D PREFETCHER ACCESS:      33212  HIT:      33212  MISS:          0  HIT %:        100  MISS %:          0   MPKI: 0
PSCL4prefetch_cycle_count: 0 prefetches_per_prefetch_cycle: -nan
PSCL4 PREFETCH  REQUESTED:          0  ISSUED:          0  USEFUL:          0  USELESS:          0
PSCL4 USEFUL LOAD PREFETCHES:          0 PREFETCH ISSUED TO LOWER LEVEL:          0  ACCURACY: -nan
PSCL4 TIMELY PREFETCHES:          0 LATE PREFETCHES: 0 DROPPED PREFETCHES: 0
PSCL4 PREFETCHES SAME FILL-ORIGIN LEVEL: 0 DIFFERENT FILL-ORIGIN LEVEL: 0

PSCL3 TOTAL     ACCESS:     130358  HIT:     129336  MISS:       1022  HIT %:     99.216  MISS %:   0.783995   MPKI: 0.02044
PSCL3 LOAD TRANSLATION ACCESS:      96610  HIT:      95588  MISS:       1022  HIT %:    98.9421  MISS %:    1.05786   MPKI: 0.02044
PSCL3 TRANSLATION FROM L1D PREFETCHER ACCESS:      33748  HIT:      33748  MISS:          0  HIT %:        100  MISS %:          0   MPKI: 0
PSCL3prefetch_cycle_count: 0 prefetches_per_prefetch_cycle: -nan
PSCL3 PREFETCH  REQUESTED:          0  ISSUED:          0  USEFUL:          0  USELESS:          0
PSCL3 USEFUL LOAD PREFETCHES:          0 PREFETCH ISSUED TO LOWER LEVEL:          0  ACCURACY: -nan
PSCL3 TIMELY PREFETCHES:          0 LATE PREFETCHES: 0 DROPPED PREFETCHES: 0
PSCL3 PREFETCHES SAME FILL-ORIGIN LEVEL: 0 DIFFERENT FILL-ORIGIN LEVEL: 0

PSCL2 TOTAL     ACCESS:     128512  HIT:      95460  MISS:      33052  HIT %:     74.281  MISS %:     25.719   MPKI: 0.66104
PSCL2 LOAD TRANSLATION ACCESS:     100714  HIT:      67662  MISS:      33052  HIT %:    67.1823  MISS %:    32.8177   MPKI: 0.66104
PSCL2 TRANSLATION FROM L1D PREFETCHER ACCESS:      27798  HIT:      27798  MISS:          0  HIT %:        100  MISS %:          0   MPKI: 0
PSCL2prefetch_cycle_count: 0 prefetches_per_prefetch_cycle: -nan
PSCL2 PREFETCH  REQUESTED:          0  ISSUED:          0  USEFUL:          0  USELESS:          0
PSCL2 USEFUL LOAD PREFETCHES:          0 PREFETCH ISSUED TO LOWER LEVEL:          0  ACCURACY: -nan
PSCL2 TIMELY PREFETCHES:          0 LATE PREFETCHES: 0 DROPPED PREFETCHES: 0
PSCL2 PREFETCHES SAME FILL-ORIGIN LEVEL: 0 DIFFERENT FILL-ORIGIN LEVEL: 0

LLC TOTAL     ACCESS:    1348759  HIT:    1270404  MISS:      78355  HIT %:    94.1906  MISS %:    5.80941   MPKI: 1.5671
LLC LOAD      ACCESS:     422270  HIT:     363418  MISS:      58852  HIT %:    86.0629  MISS %:    13.9371   MPKI: 1.17704
LLC RFO       ACCESS:      46451  HIT:      34063  MISS:      12388  HIT %:     73.331  MISS %:     26.669   MPKI: 0.24776
LLC PREFETCH  ACCESS:     683220  HIT:     678104  MISS:       5116  HIT %:    99.2512  MISS %:   0.748807   MPKI: 0.10232
LLC WRITEBACK ACCESS:     130932  HIT:     130386  MISS:        546  HIT %:     99.583  MISS %:    0.41701   MPKI: 0.01092
LLC LOAD TRANSLATION ACCESS:      53958  HIT:      52554  MISS:       1404  HIT %:     97.398  MISS %:    2.60202   MPKI: 0.02808
LLC TRANSLATION FROM L1D PREFETCHER ACCESS:      11928  HIT:      11879  MISS:         49  HIT %:    99.5892  MISS %:   0.410798   MPKI: 0.00098
LLCprefetch_cycle_count: 0 prefetches_per_prefetch_cycle: -nan
LLC PREFETCH  REQUESTED:          0  ISSUED:          0  USEFUL:        498  USELESS:       4595
LLC USEFUL LOAD PREFETCHES:        498 PREFETCH ISSUED TO LOWER LEVEL:       5116  ACCURACY: 9.73417
LLC TIMELY PREFETCHES:        498 LATE PREFETCHES: 0 DROPPED PREFETCHES: 0
LLC PREFETCHES SAME FILL-ORIGIN LEVEL: 0 DIFFERENT FILL-ORIGIN LEVEL: 0
LLC AVERAGE MISS LATENCY: 156.911 cycles
LLC RQ	ACCESS:     534609	FORWARD:          0	MERGED:          0	TO_CACHE:     534607
LLC WQ	ACCESS:     130932	FORWARD:          2	MERGED:          0	TO_CACHE:     130932
LLC PQ	ACCESS:     683220	FORWARD:          0	MERGED:          0	TO_CACHE:     683220

LLC Dense regions hint to LLC: 0

RAW hits: 1032033
Loads Generated: 11458862
Loads sent to L1D: 10426829
Stores Generated: 5191012
Stores sent to L1D: 5191026
Major fault: 0 Minor fault: 6553
Allocated PAGES: 6553
I-Shadow cache 408 bytes
Touched + WorthPF tables 6144 bytes 
MMA filter 174 bytes 
FNL filter 272 bytes 
TOTAL PREFETCHER STORAGE SIZE: 25174 bytes
CPU 0 L1I next line prefetcher final stats
total_pref_operate_instances_l2: 1620819
dynamic_config_counter_instances_l2_1: 1608803
dynamic_config_counter_instances_l2_2: 6996
dynamic_config_counter_instances_l2_3: 5020
dynamic_config_counter_instances_l2_4: 0
dynamic_config_counter_instances_l2_5: 0
[Bingo] PHT Access: 13412
[Bingo] PHT Hit PC+Addr: 4893
[Bingo] PHT Hit PC+Offs: 522
[Bingo] PHT Miss: 7997
[Bingo] Prefetch PC+Addr: 0
[Bingo] Prefetch PC+Offs: 0
[Bingo] Useful PC+Addr: 0
[Bingo] Useful PC+Offs: 0
[Bingo] Useless PC+Addr: 0
[Bingo] Useless PC+Offs: 0
[Bingo] L1 Prefetch per Region: 0
[Bingo] L2 Prefetch per Region: 3.80665
[Bingo] L3 Prefetch per Region: 0
[Bingo] No Prefetch per Region: 28.1934
[Bingo] Number of Voters Mean: 2.08812
[Bingo] Number of Voters SD: 4.50945
PHT read accesses: 54574
PHT write accesses: 5324
AT read accesses: 24338
AT write accesses: 27094
FT read accesses: 16720
FT write accesses: 13412
PS read accesses: 10882
PS write accesses: 5415
PHT tag read accesses: 243934
PHT tag write accesses: 10217
AT tag read accesses: 20638831
AT tag write accesses: 29636
FT tag read accesses: 20608903
FT tag write accesses: 24779
PS tag read accesses: 743345
PS tag write accesses: 16294

DRAM Statistics
 CHANNEL 0
 RQ ROW_BUFFER_HIT:      11478  ROW_BUFFER_MISS:      66331
 DBUS_CONGESTED:         45
 WQ ROW_BUFFER_HIT:      11266  ROW_BUFFER_MISS:      46643  FULL:          0

 AVG_CONGESTED_CYCLE: 4
 All warmup complete: 2
Channel 0 Bank busy for read cycles: 0
Channel 0 Bank busy for write cycles: 0
Channel 0
Rank 0
0banks busy for read cycles: 58244864
0banks busy for write cycles: 26599
1banks busy for read cycles: 6321634
1banks busy for write cycles: 3666713
2banks busy for read cycles: 1306830
2banks busy for write cycles: 1202143
3banks busy for read cycles: 256808
3banks busy for write cycles: 431179
4banks busy for read cycles: 83555
4banks busy for write cycles: 209292
5banks busy for read cycles: 33506
5banks busy for write cycles: 128521
6banks busy for read cycles: 23400
6banks busy for write cycles: 93634
7banks busy for read cycles: 12372
7banks busy for write cycles: 89595
8banks busy for read cycles: 11168
8banks busy for write cycles: 102186

CPU 0 Branch Prediction Accuracy: 99.4114% MPKI: 1.0933 Average ROB Occupancy at Mispredict: 61.2413
Branch types
NOT_BRANCH: 40713088 81.4262%
BRANCH_DIRECT_JUMP: 463697 0.927394%
BRANCH_INDIRECT: 146542 0.293084%
BRANCH_CONDITIONAL: 6981926 13.9639%
BRANCH_DIRECT_CALL: 665004 1.33001%
BRANCH_INDIRECT_CALL: 165150 0.3303%
BRANCH_RETURN: 864309 1.72862%
BRANCH_OTHER: 0 0%

DRAM PAGES: 1048576
Allocated PAGES: 6553
