
*** ChampSim Multicore Out-of-Order Simulator ***

Warmup Instructions: 50000000
Simulation Instructions: 50000000
Number of CPUs: 1
LLC sets: 2048
LLC ways: 16
Off-chip DRAM Size: 4096 MB Channels: 1 Width: 64-bit Data Rate: 6400 MT/s
CPU 0 runs ../../IPC-traces//server_017.champsimtrace.xz
.xz
NUM_OF_IPS_IN_CRITICAL_IP_TRAINING: 64
NUM_OF_CRITICAL_IP_TRAINING_TABLE_WAYS: 2
NUM_OF_CRITICAL_IP_TRAINING_TABLE_SETS: 32
WOBBLY_CRITICAL_IP_CACHE_SETS: 32
WOBBLY_CRITICAL_IP_CACHE_WAYS: 4
BTB has LRU replacement policy
ITLB has LRU replacement policy
DTLB has LRU replacement policy
STLB has LRU replacement policy
CPU 0 L1I next line prefetcher
L1I has LRU replacement policy
L1D has LRU replacement policy
Bingo PHT WAYS: 16 and PHT_SIZE: 16384
Initialize SRRIP state for L2C
Initialize DRRIP state for LLC
Heartbeat CPU 0 instructions: 10000000 cycles: 3191459 heartbeat IPC: 3.13336 cumulative IPC: 3.13336 (Simulation time: 0 hr 4 min 59 sec) 
Heartbeat CPU 0 instructions: 20000000 cycles: 6375017 heartbeat IPC: 3.14114 cumulative IPC: 3.13725 (Simulation time: 0 hr 9 min 40 sec) 
Heartbeat CPU 0 instructions: 30000002 cycles: 9568072 heartbeat IPC: 3.1318 cumulative IPC: 3.13543 (Simulation time: 0 hr 13 min 40 sec) 
Heartbeat CPU 0 instructions: 40000000 cycles: 12753888 heartbeat IPC: 3.13891 cumulative IPC: 3.1363 (Simulation time: 0 hr 17 min 19 sec) 
Heartbeat CPU 0 instructions: 50000000 cycles: 15955371 heartbeat IPC: 3.12355 cumulative IPC: 3.13374 (Simulation time: 0 hr 20 min 21 sec) 

Warmup complete CPU 0 instructions: 50000004 cycles: 15955372 (Simulation time: 0 hr 20 min 21 sec) 

% increase in all ip prefetch 392.089
% increase in all ip prefetch -17.4723
Heartbeat CPU 0 instructions: 60000000 cycles: 34847632 heartbeat IPC: 0.529317 cumulative IPC: 0.529317 (Simulation time: 0 hr 24 min 54 sec) 
Heartbeat CPU 0 instructions: 70000000 cycles: 53807126 heartbeat IPC: 0.52744 cumulative IPC: 0.528377 (Simulation time: 0 hr 29 min 28 sec) 
Heartbeat CPU 0 instructions: 80000000 cycles: 72631604 heartbeat IPC: 0.531223 cumulative IPC: 0.529322 (Simulation time: 0 hr 33 min 41 sec) 
Heartbeat CPU 0 instructions: 90000002 cycles: 96533887 heartbeat IPC: 0.41837 cumulative IPC: 0.49641 (Simulation time: 0 hr 35 min 15 sec) 
Heartbeat CPU 0 instructions: 100000003 cycles: 118886902 heartbeat IPC: 0.447367 cumulative IPC: 0.48576 (Simulation time: 0 hr 35 min 58 sec) 
Finished CPU 0 instructions: 50000003 cycles: 102931547 cumulative IPC: 0.48576 (Simulation time: 0 hr 35 min 58 sec) 

ChampSim completed all CPUs

Region of Interest Statistics

CPU 0 cumulative IPC: 0.48576 instructions: 50000003 cycles: 102931547

CPU 0 Average Load ROB stall cycles: 8.21733e+06
CPU 0 Fraction of times ROB stalled by Loads: 12.9207
CPU 0 Percentage of Load stall cycles in Total stall cycles: 9.00897e+07
 Total stall cycles: 47696580
 Total load stall cycles: 42969712115428
CPU 0 NUM of IPS identified critical: 6
CPU 0 Num of Load IPs stalling ROB: 2273
Threshold modification factor: -1
Max PIST entries: 64
Min PIST entries: 0
Avg PIST entries: 29.94
Trouble in retire width: 0.863559
MaC = Marked as critical.
lt_50_percent_before_Mac: 6
gt_90_percent_before_Mac: 0
gt_75_percent_before_Mac: 0
gt_50_percent_before_Mac: 0
stall_proportion_bin_same_before_after: 0
stall_proportion_bin_lower_before_after: 0
stall_proportion_bin_upper_before_after: 0
average_stall_proportion_before: 0.188933
average_stall_proportion_after: 0.150668
Critical IP stalls, total frequency: 277056
Non-critical IP stalls, total frequency: 384241
Critical_IP_ROB_Stalls_Bucket_0: 7936
Non-critical_IP_ROB_Stalls_Bucket_0: 174435
Critical_IP_ROB_Stalls_Bucket_1: 29173
Non-critical_IP_ROB_Stalls_Bucket_1: 112211
Critical_IP_ROB_Stalls_Bucket_2: 37377
Non-critical_IP_ROB_Stalls_Bucket_2: 57420
Critical_IP_ROB_Stalls_Bucket_3: 48947
Non-critical_IP_ROB_Stalls_Bucket_3: 15904
Critical_IP_ROB_Stalls_Bucket_4: 34103
Non-critical_IP_ROB_Stalls_Bucket_4: 7824
Critical_IP_ROB_Stalls_Bucket_5: 35406
Non-critical_IP_ROB_Stalls_Bucket_5: 7734
Critical_IP_ROB_Stalls_Bucket_6: 84114
Non-critical_IP_ROB_Stalls_Bucket_6: 23060
0 => IPs accounting for >50 percent of stalls, 1 => 55, 2 => 60, 3 => 65 and so on till 90.
percent50: 50.4085 num IPs:14
percent55: 55.2289 num IPs:28
percent60: 60.0945 num IPs:44
percent65: 65.0017 num IPs:62
percent70: 70.0082 num IPs:83
percent75: 75.0843 num IPs:108
percent80: 80.1324 num IPs:140
percent85: 85.0811 num IPs:186
percent90: 90.0347 num IPs:277
Critical_ROB_Stalls_Percent_0_Bucket_0: 35271
Non-critical_ROB_Stalls_Percent_0_Bucket_0: 147100
Critical_ROB_Stalls_Percent_0_Bucket_1: 47793
Non-critical_ROB_Stalls_Percent_0_Bucket_1: 93591
Critical_ROB_Stalls_Percent_0_Bucket_2: 43567
Non-critical_ROB_Stalls_Percent_0_Bucket_2: 51230
Critical_ROB_Stalls_Percent_0_Bucket_3: 48792
Non-critical_ROB_Stalls_Percent_0_Bucket_3: 16059
Critical_ROB_Stalls_Percent_0_Bucket_4: 34476
Non-critical_ROB_Stalls_Percent_0_Bucket_4: 7451
Critical_ROB_Stalls_Percent_0_Bucket_5: 37197
Non-critical_ROB_Stalls_Percent_0_Bucket_5: 5943
Critical_ROB_Stalls_Percent_0_Bucket_6: 86254
Non-critical_ROB_Stalls_Percent_0_Bucket_6: 20920
Critical_ROB_Stalls_Percent_1_Bucket_0: 43924
Non-critical_ROB_Stalls_Percent_1_Bucket_0: 138447
Critical_ROB_Stalls_Percent_1_Bucket_1: 58398
Non-critical_ROB_Stalls_Percent_1_Bucket_1: 82986
Critical_ROB_Stalls_Percent_1_Bucket_2: 47761
Non-critical_ROB_Stalls_Percent_1_Bucket_2: 47036
Critical_ROB_Stalls_Percent_1_Bucket_3: 49930
Non-critical_ROB_Stalls_Percent_1_Bucket_3: 14921
Critical_ROB_Stalls_Percent_1_Bucket_4: 35073
Non-critical_ROB_Stalls_Percent_1_Bucket_4: 6854
Critical_ROB_Stalls_Percent_1_Bucket_5: 38660
Non-critical_ROB_Stalls_Percent_1_Bucket_5: 4480
Critical_ROB_Stalls_Percent_1_Bucket_6: 91481
Non-critical_ROB_Stalls_Percent_1_Bucket_6: 15693
Critical_ROB_Stalls_Percent_2_Bucket_0: 61118
Non-critical_ROB_Stalls_Percent_2_Bucket_0: 121253
Critical_ROB_Stalls_Percent_2_Bucket_1: 67555
Non-critical_ROB_Stalls_Percent_2_Bucket_1: 73829
Critical_ROB_Stalls_Percent_2_Bucket_2: 51483
Non-critical_ROB_Stalls_Percent_2_Bucket_2: 43314
Critical_ROB_Stalls_Percent_2_Bucket_3: 51915
Non-critical_ROB_Stalls_Percent_2_Bucket_3: 12936
Critical_ROB_Stalls_Percent_2_Bucket_4: 35075
Non-critical_ROB_Stalls_Percent_2_Bucket_4: 6852
Critical_ROB_Stalls_Percent_2_Bucket_5: 38702
Non-critical_ROB_Stalls_Percent_2_Bucket_5: 4438
Critical_ROB_Stalls_Percent_2_Bucket_6: 91555
Non-critical_ROB_Stalls_Percent_2_Bucket_6: 15619
Critical_ROB_Stalls_Percent_3_Bucket_0: 73096
Non-critical_ROB_Stalls_Percent_3_Bucket_0: 109275
Critical_ROB_Stalls_Percent_3_Bucket_1: 76624
Non-critical_ROB_Stalls_Percent_3_Bucket_1: 64760
Critical_ROB_Stalls_Percent_3_Bucket_2: 60043
Non-critical_ROB_Stalls_Percent_3_Bucket_2: 34754
Critical_ROB_Stalls_Percent_3_Bucket_3: 53046
Non-critical_ROB_Stalls_Percent_3_Bucket_3: 11805
Critical_ROB_Stalls_Percent_3_Bucket_4: 35306
Non-critical_ROB_Stalls_Percent_3_Bucket_4: 6621
Critical_ROB_Stalls_Percent_3_Bucket_5: 38965
Non-critical_ROB_Stalls_Percent_3_Bucket_5: 4175
Critical_ROB_Stalls_Percent_3_Bucket_6: 92774
Non-critical_ROB_Stalls_Percent_3_Bucket_6: 14400
Critical_ROB_Stalls_Percent_4_Bucket_0: 88454
Non-critical_ROB_Stalls_Percent_4_Bucket_0: 93917
Critical_ROB_Stalls_Percent_4_Bucket_1: 83128
Non-critical_ROB_Stalls_Percent_4_Bucket_1: 58256
Critical_ROB_Stalls_Percent_4_Bucket_2: 66841
Non-critical_ROB_Stalls_Percent_4_Bucket_2: 27956
Critical_ROB_Stalls_Percent_4_Bucket_3: 53831
Non-critical_ROB_Stalls_Percent_4_Bucket_3: 11020
Critical_ROB_Stalls_Percent_4_Bucket_4: 36519
Non-critical_ROB_Stalls_Percent_4_Bucket_4: 5408
Critical_ROB_Stalls_Percent_4_Bucket_5: 39139
Non-critical_ROB_Stalls_Percent_4_Bucket_5: 4001
Critical_ROB_Stalls_Percent_4_Bucket_6: 95050
Non-critical_ROB_Stalls_Percent_4_Bucket_6: 12124
Critical_ROB_Stalls_Percent_5_Bucket_0: 107993
Non-critical_ROB_Stalls_Percent_5_Bucket_0: 74378
Critical_ROB_Stalls_Percent_5_Bucket_1: 87263
Non-critical_ROB_Stalls_Percent_5_Bucket_1: 54121
Critical_ROB_Stalls_Percent_5_Bucket_2: 70045
Non-critical_ROB_Stalls_Percent_5_Bucket_2: 24752
Critical_ROB_Stalls_Percent_5_Bucket_3: 55052
Non-critical_ROB_Stalls_Percent_5_Bucket_3: 9799
Critical_ROB_Stalls_Percent_5_Bucket_4: 37270
Non-critical_ROB_Stalls_Percent_5_Bucket_4: 4657
Critical_ROB_Stalls_Percent_5_Bucket_5: 40057
Non-critical_ROB_Stalls_Percent_5_Bucket_5: 3083
Critical_ROB_Stalls_Percent_5_Bucket_6: 98850
Non-critical_ROB_Stalls_Percent_5_Bucket_6: 8324
Critical_ROB_Stalls_Percent_6_Bucket_0: 126542
Non-critical_ROB_Stalls_Percent_6_Bucket_0: 55829
Critical_ROB_Stalls_Percent_6_Bucket_1: 96366
Non-critical_ROB_Stalls_Percent_6_Bucket_1: 45018
Critical_ROB_Stalls_Percent_6_Bucket_2: 72418
Non-critical_ROB_Stalls_Percent_6_Bucket_2: 22379
Critical_ROB_Stalls_Percent_6_Bucket_3: 56521
Non-critical_ROB_Stalls_Percent_6_Bucket_3: 8330
Critical_ROB_Stalls_Percent_6_Bucket_4: 38278
Non-critical_ROB_Stalls_Percent_6_Bucket_4: 3649
Critical_ROB_Stalls_Percent_6_Bucket_5: 40288
Non-critical_ROB_Stalls_Percent_6_Bucket_5: 2852
Critical_ROB_Stalls_Percent_6_Bucket_6: 99500
Non-critical_ROB_Stalls_Percent_6_Bucket_6: 7674
Critical_ROB_Stalls_Percent_7_Bucket_0: 139789
Non-critical_ROB_Stalls_Percent_7_Bucket_0: 42582
Critical_ROB_Stalls_Percent_7_Bucket_1: 105146
Non-critical_ROB_Stalls_Percent_7_Bucket_1: 36238
Critical_ROB_Stalls_Percent_7_Bucket_2: 78189
Non-critical_ROB_Stalls_Percent_7_Bucket_2: 16608
Critical_ROB_Stalls_Percent_7_Bucket_3: 58194
Non-critical_ROB_Stalls_Percent_7_Bucket_3: 6657
Critical_ROB_Stalls_Percent_7_Bucket_4: 39476
Non-critical_ROB_Stalls_Percent_7_Bucket_4: 2451
Critical_ROB_Stalls_Percent_7_Bucket_5: 40898
Non-critical_ROB_Stalls_Percent_7_Bucket_5: 2242
Critical_ROB_Stalls_Percent_7_Bucket_6: 100947
Non-critical_ROB_Stalls_Percent_7_Bucket_6: 6227
Critical_ROB_Stalls_Percent_8_Bucket_0: 154650
Non-critical_ROB_Stalls_Percent_8_Bucket_0: 27721
Critical_ROB_Stalls_Percent_8_Bucket_1: 115146
Non-critical_ROB_Stalls_Percent_8_Bucket_1: 26238
Critical_ROB_Stalls_Percent_8_Bucket_2: 81895
Non-critical_ROB_Stalls_Percent_8_Bucket_2: 12902
Critical_ROB_Stalls_Percent_8_Bucket_3: 60077
Non-critical_ROB_Stalls_Percent_8_Bucket_3: 4774
Critical_ROB_Stalls_Percent_8_Bucket_4: 39768
Non-critical_ROB_Stalls_Percent_8_Bucket_4: 2159
Critical_ROB_Stalls_Percent_8_Bucket_5: 41242
Non-critical_ROB_Stalls_Percent_8_Bucket_5: 1898
Critical_ROB_Stalls_Percent_8_Bucket_6: 102619
Non-critical_ROB_Stalls_Percent_8_Bucket_6: 4555
Average ROB occupancy Load Stall Begin: 135.564
Average ROB occupancy Load Stall End: 142.976
Min ROB occupancy Load Stall Begin: 1
Max ROB occupancy Load Stall Begin: 351
Min ROB occupancy Load Stall End: 1
Max ROB occupancy Load Stall End: 352
Average ROB occupancy Critical Load Stall Begin: 219.782
Average ROB occupancy Critical Load Stall End: 226.86
Min ROB occupancy Critical Load Stall Begin: 17
Max ROB occupancy Critical Load Stall Begin: 351
Min ROB occupancy Critical Load Stall End: 19
Max ROB occupancy Critical Load Stall End: 352
 ROB Load Stall Begin Bucket Count 0: 215396
 ROB Load Stall End Bucket Count 0: 182371
 ROB Critical Load Stall Begin Bucket Count 0: 9109
 ROB Critical Load Stall End Bucket Count 0: 6077
 ROB Load Stall Begin Bucket Count 1: 130238
 ROB Load Stall End Bucket Count 1: 141384
 ROB Critical Load Stall Begin Bucket Count 1: 31326
 ROB Critical Load Stall End Bucket Count 1: 26633
 ROB Load Stall Begin Bucket Count 2: 90303
 ROB Load Stall End Bucket Count 2: 94797
 ROB Critical Load Stall Begin Bucket Count 2: 39720
 ROB Critical Load Stall End Bucket Count 2: 36961
 ROB Load Stall Begin Bucket Count 3: 57103
 ROB Load Stall End Bucket Count 3: 64851
 ROB Critical Load Stall Begin Bucket Count 3: 41294
 ROB Critical Load Stall End Bucket Count 3: 46079
 ROB Load Stall Begin Bucket Count 4: 39300
 ROB Load Stall End Bucket Count 4: 41927
 ROB Critical Load Stall Begin Bucket Count 4: 32588
 ROB Critical Load Stall End Bucket Count 4: 33962
 ROB Load Stall Begin Bucket Count 5: 42559
 ROB Load Stall End Bucket Count 5: 43140
 ROB Critical Load Stall Begin Bucket Count 5: 33634
 ROB Critical Load Stall End Bucket Count 5: 35114
 ROB Load Stall Begin Bucket Count 6: 100745
 ROB Load Stall End Bucket Count 6: 107174
 ROB Critical Load Stall Begin Bucket Count 6: 81019
 ROB Critical Load Stall End Bucket Count 6: 83864
PIST Tag Read Accesses: 289102
PIST Read Accesses: 144551
PIST Tag Write Accesses: 289102
PIST Write Accesses: 144551
Criticality detector called times: 218807
Max global_stall_cycles_count: 435786
Threshold Modified: 1 times, factor: -1
ITLB TOTAL     ACCESS:   10086421  HIT:    9649775  MISS:     436646  HIT %:     95.671  MISS %:    4.32905   MPKI: 8.73292
ITLB LOAD TRANSLATION ACCESS:    8356482  HIT:    8346203  MISS:      10279  HIT %:     99.877  MISS %:   0.123006   MPKI: 0.20558
ITLB TRANSLATION FROM L1D PREFETCHER ACCESS:    1729939  HIT:    1303572  MISS:     426367  HIT %:    75.3536  MISS %:    24.6464   MPKI: 8.52734
ITLB PREFETCH  REQUESTED:          0  ISSUED:          0  USEFUL:     377658  USELESS:      48703
ITLB USEFUL LOAD PREFETCHES:     377658 PREFETCH ISSUED TO LOWER LEVEL:          0  ACCURACY: inf
ITLB TIMELY PREFETCHES:     377658 LATE PREFETCHES: 378 DROPPED PREFETCHES: 89
ITLB PREFETCHES SAME FILL-ORIGIN LEVEL: 0 DIFFERENT FILL-ORIGIN LEVEL: 0
ITLB AVERAGE MISS LATENCY: 53878.7 cycles
ITLB RQ	ACCESS:   14248548	FORWARD:          0	MERGED:    4106181	TO_CACHE:   10142367

DTLB TOTAL     ACCESS:   10680842  HIT:   10240873  MISS:     439969  HIT %:    95.8808  MISS %:    4.11924   MPKI: 8.79938
DTLB LOAD TRANSLATION ACCESS:   10680842  HIT:   10240873  MISS:     439969  HIT %:    95.8808  MISS %:    4.11924   MPKI: 8.79938
DTLB PREFETCH  REQUESTED:          0  ISSUED:          0  USEFUL:          0  USELESS:          0
DTLB USEFUL LOAD PREFETCHES:          0 PREFETCH ISSUED TO LOWER LEVEL:          0  ACCURACY: -nan
DTLB TIMELY PREFETCHES:          0 LATE PREFETCHES: 0 DROPPED PREFETCHES: 0
DTLB PREFETCHES SAME FILL-ORIGIN LEVEL: 0 DIFFERENT FILL-ORIGIN LEVEL: 0
DTLB AVERAGE MISS LATENCY: 24.7811 cycles
DTLB RQ	ACCESS:   15480621	FORWARD:          0	MERGED:    4722331	TO_CACHE:   10758290

STLB TOTAL     ACCESS:     876615  HIT:     813230  MISS:      63385  HIT %:    92.7693  MISS %:    7.23065   MPKI: 1.2677
STLB LOAD TRANSLATION ACCESS:     449870  HIT:     387458  MISS:      62412  HIT %:    86.1267  MISS %:    13.8733   MPKI: 1.24824
STLB TRANSLATION FROM L1D PREFETCHER ACCESS:     426745  HIT:     425772  MISS:        973  HIT %:     99.772  MISS %:   0.228005   MPKI: 0.01946
STLB PREFETCH  REQUESTED:          0  ISSUED:          0  USEFUL:        723  USELESS:        247
STLB USEFUL LOAD PREFETCHES:        723 PREFETCH ISSUED TO LOWER LEVEL:          0  ACCURACY: inf
STLB TIMELY PREFETCHES:        723 LATE PREFETCHES: 0 DROPPED PREFETCHES: 89
STLB PREFETCHES SAME FILL-ORIGIN LEVEL: 0 DIFFERENT FILL-ORIGIN LEVEL: 0
STLB AVERAGE MISS LATENCY: 114.526 cycles
STLB RQ	ACCESS:     876704	FORWARD:          0	MERGED:          0	TO_CACHE:     876704

STLB Hit, L1D data hit: 0
STLB Hit, L2C data hit: 0
STLB Hit, LLC data hit: 0
STLB Hit, LLC data miss: 0
STLB STLB hints to L2: 0
L1D TOTAL     ACCESS:   13541353  HIT:   11803313  MISS:    1738040  HIT %:    87.1649  MISS %:    12.8351   MPKI: 34.7608
L1D LOAD      ACCESS:    7378269  HIT:    6514541  MISS:     863728  HIT %:    88.2936  MISS %:    11.7064   MPKI: 17.2746
L1D RFO       ACCESS:    6163084  HIT:    5288772  MISS:     874312  HIT %:    85.8137  MISS %:    14.1863   MPKI: 17.4862
L1D PREFETCH  REQUESTED:          0  ISSUED:          0  USEFUL:          0  USELESS:          0
L1D USEFUL LOAD PREFETCHES:          0 PREFETCH ISSUED TO LOWER LEVEL:          0  ACCURACY: -nan
L1D TIMELY PREFETCHES:          0 LATE PREFETCHES: 0 DROPPED PREFETCHES: 0
L1D PREFETCHES SAME FILL-ORIGIN LEVEL: 0 DIFFERENT FILL-ORIGIN LEVEL: 0
L1D AVERAGE MISS LATENCY: 134.808 cycles
L1D RQ	ACCESS:   10836894	FORWARD:          0	MERGED:    3318768	TO_CACHE:    7402559
L1D WQ	ACCESS:    8175288	FORWARD:     115567	MERGED:      97226	TO_CACHE:    8078062

L1D UNIQUE REGIONS ACCESSED: 0
L1D REGIONS CONFLICTS: 0
L1D Cross Page Prefetch Requests: 0
L1D Same Page Prefetch Requests: 0
L1D ROI Sum of L1D PQ occupancy: 0
L1D PREFETCHES PUSHED FROM L2C: 0
L1I TOTAL     ACCESS:   14173004  HIT:   11319544  MISS:    2853460  HIT %:    79.8669  MISS %:    20.1331   MPKI: 57.0692
L1I LOAD      ACCESS:    9733277  HIT:    9711914  MISS:      21363  HIT %:    99.7805  MISS %:   0.219484   MPKI: 0.42726
L1I PREFETCH  ACCESS:    4439727  HIT:    1607630  MISS:    2832097  HIT %:    36.2101  MISS %:    63.7899   MPKI: 56.6419
L1I PREFETCH  REQUESTED:    4678214  ISSUED:    4673413  USEFUL:    2358605  USELESS:     473485
L1I USEFUL LOAD PREFETCHES:    2358605 PREFETCH ISSUED TO LOWER LEVEL:    2885763  ACCURACY: 81.7325
L1I TIMELY PREFETCHES:    2358605 LATE PREFETCHES: 8958 DROPPED PREFETCHES: 155
L1I PREFETCHES SAME FILL-ORIGIN LEVEL: 2885763 DIFFERENT FILL-ORIGIN LEVEL: 0
L1I AVERAGE MISS LATENCY: 245736 cycles
L1I RQ	ACCESS:   14042098	FORWARD:          0	MERGED:    4303932	TO_CACHE:    9738166
L1I PQ	ACCESS:    4673413	FORWARD:          0	MERGED:     163031	TO_CACHE:    4510382

BTB TOTAL     ACCESS:    5420737  HIT:    5179354  MISS:     241383  HIT %:     95.547  MISS %:    4.45296   MPKI: 4.82766
BTB BRANCH_DIRECT_JUMP	ACCESS:     464500  HIT:     462787  MISS:       1713
BTB BRANCH_INDIRECT	ACCESS:      45704  HIT:      45540  MISS:        164
BTB BRANCH_CONDITIONAL	ACCESS:    3156565  HIT:    3151071  MISS:       5494
BTB BRANCH_DIRECT_CALL	ACCESS:     675450  HIT:     671839  MISS:       3611
BTB BRANCH_INDIRECT_CALL	ACCESS:     201532  HIT:     175397  MISS:      26135
BTB BRANCH_RETURN	ACCESS:     876986  HIT:     672720  MISS:     204266
BTB BRANCH_OTHER ACCESS:          0  HIT:          0  MISS:          0

L2C TOTAL     ACCESS:    6526387  HIT:    4626211  MISS:    1900176  HIT %:    70.8847  MISS %:    29.1153   MPKI: 38.0035
L2C LOAD      ACCESS:     876119  HIT:     640067  MISS:     236052  HIT %:    73.0571  MISS %:    26.9429   MPKI: 4.72104
L2C DATA LOAD MPKI: 4.60046
L2C INSTRUCTION LOAD MPKI: 0.12058
L2C RFO       ACCESS:     874310  HIT:      56473  MISS:     817837  HIT %:    6.45915  MISS %:    93.5408   MPKI: 16.3567
L2C PREFETCH  ACCESS:    3576539  HIT:    2826667  MISS:     749872  HIT %:    79.0336  MISS %:    20.9664   MPKI: 14.9974
L2C DATA PREFETCH MPKI: 11.9952
L2C INSTRUCTION PREFETCH MPKI: 3.00222
L2C WRITEBACK ACCESS:    1110609  HIT:    1046371  MISS:      64238  HIT %:     94.216  MISS %:    5.78403   MPKI: 1.28476
L2C LOAD TRANSLATION ACCESS:      87215  HIT:      56039  MISS:      31176  HIT %:    64.2539  MISS %:    35.7461   MPKI: 0.62352
L2C TRANSLATION FROM L1D PREFETCHER ACCESS:       1595  HIT:        594  MISS:       1001  HIT %:    37.2414  MISS %:    62.7586   MPKI: 0.02002
L2C PREFETCH  REQUESTED:     778680  ISSUED:     778680  USEFUL:     484115  USELESS:     267534
L2C USEFUL LOAD PREFETCHES:     484115 PREFETCH ISSUED TO LOWER LEVEL:     760411  ACCURACY: 63.6649
L2C TIMELY PREFETCHES:     484115 LATE PREFETCHES: 10539 DROPPED PREFETCHES: 0
L2C PREFETCHES SAME FILL-ORIGIN LEVEL: 610300 DIFFERENT FILL-ORIGIN LEVEL: 0
L2C AVERAGE MISS LATENCY: 164.316 cycles
L2C RQ	ACCESS:    1839255	FORWARD:          0	MERGED:          0	TO_CACHE:    1839239
L2C WQ	ACCESS:    1110609	FORWARD:         16	MERGED:          0	TO_CACHE:    1110609
L2C PQ	ACCESS:    3619735	FORWARD:          0	MERGED:          0	TO_CACHE:    3619735

L2C Instructions Evicting Data 138848
L2C Translations Evicting Data 28695
L2C Data Evicting Data 1484840
L2C Instructions Evicting Instructions 14301
L2C Translations Evicting Instructions 3016
L2C Data Evicting Instructions 134898
L2C Instructions Evicting Translations 2991
L2C Translations Evicting Translations 466
L2C Data Evicting Translations 27883
L2C Dense regions hint from L2: 0
PSCL5 TOTAL     ACCESS:      63474  HIT:      63474  MISS:          0  HIT %:        100  MISS %:          0   MPKI: 0
PSCL5 LOAD TRANSLATION ACCESS:      62412  HIT:      62412  MISS:          0  HIT %:        100  MISS %:          0   MPKI: 0
PSCL5 TRANSLATION FROM L1D PREFETCHER ACCESS:       1062  HIT:       1062  MISS:          0  HIT %:        100  MISS %:          0   MPKI: 0
PSCL5 PREFETCH  REQUESTED:          0  ISSUED:          0  USEFUL:          0  USELESS:          0
PSCL5 USEFUL LOAD PREFETCHES:          0 PREFETCH ISSUED TO LOWER LEVEL:          0  ACCURACY: -nan
PSCL5 TIMELY PREFETCHES:          0 LATE PREFETCHES: 0 DROPPED PREFETCHES: 0
PSCL5 PREFETCHES SAME FILL-ORIGIN LEVEL: 0 DIFFERENT FILL-ORIGIN LEVEL: 0

PSCL4 TOTAL     ACCESS:      34793  HIT:      34673  MISS:        120  HIT %:    99.6551  MISS %:   0.344897   MPKI: 0.0024
PSCL4 LOAD TRANSLATION ACCESS:      33888  HIT:      33768  MISS:        120  HIT %:    99.6459  MISS %:   0.354108   MPKI: 0.0024
PSCL4 TRANSLATION FROM L1D PREFETCHER ACCESS:        905  HIT:        905  MISS:          0  HIT %:        100  MISS %:          0   MPKI: 0
PSCL4 PREFETCH  REQUESTED:          0  ISSUED:          0  USEFUL:          0  USELESS:          0
PSCL4 USEFUL LOAD PREFETCHES:          0 PREFETCH ISSUED TO LOWER LEVEL:          0  ACCURACY: -nan
PSCL4 TIMELY PREFETCHES:          0 LATE PREFETCHES: 0 DROPPED PREFETCHES: 0
PSCL4 PREFETCHES SAME FILL-ORIGIN LEVEL: 0 DIFFERENT FILL-ORIGIN LEVEL: 0

PSCL3 TOTAL     ACCESS:      63220  HIT:      62736  MISS:        484  HIT %:    99.2344  MISS %:   0.765581   MPKI: 0.00968
PSCL3 LOAD TRANSLATION ACCESS:      62303  HIT:      61819  MISS:        484  HIT %:    99.2232  MISS %:   0.776849   MPKI: 0.00968
PSCL3 TRANSLATION FROM L1D PREFETCHER ACCESS:        917  HIT:        917  MISS:          0  HIT %:        100  MISS %:          0   MPKI: 0
PSCL3 PREFETCH  REQUESTED:          0  ISSUED:          0  USEFUL:          0  USELESS:          0
PSCL3 USEFUL LOAD PREFETCHES:          0 PREFETCH ISSUED TO LOWER LEVEL:          0  ACCURACY: -nan
PSCL3 TIMELY PREFETCHES:          0 LATE PREFETCHES: 0 DROPPED PREFETCHES: 0
PSCL3 PREFETCHES SAME FILL-ORIGIN LEVEL: 0 DIFFERENT FILL-ORIGIN LEVEL: 0

PSCL2 TOTAL     ACCESS:      63392  HIT:      38703  MISS:      24689  HIT %:    61.0534  MISS %:    38.9466   MPKI: 0.49378
PSCL2 LOAD TRANSLATION ACCESS:      62736  HIT:      38047  MISS:      24689  HIT %:    60.6462  MISS %:    39.3538   MPKI: 0.49378
PSCL2 TRANSLATION FROM L1D PREFETCHER ACCESS:        656  HIT:        656  MISS:          0  HIT %:        100  MISS %:          0   MPKI: 0
PSCL2 PREFETCH  REQUESTED:          0  ISSUED:          0  USEFUL:          0  USELESS:          0
PSCL2 USEFUL LOAD PREFETCHES:          0 PREFETCH ISSUED TO LOWER LEVEL:          0  ACCURACY: -nan
PSCL2 TIMELY PREFETCHES:          0 LATE PREFETCHES: 0 DROPPED PREFETCHES: 0
PSCL2 PREFETCHES SAME FILL-ORIGIN LEVEL: 0 DIFFERENT FILL-ORIGIN LEVEL: 0

LLC TOTAL     ACCESS:    2886760  HIT:    1017227  MISS:    1869533  HIT %:    35.2377  MISS %:    64.7623   MPKI: 37.3907
LLC LOAD      ACCESS:     225646  HIT:     102065  MISS:     123581  HIT %:    45.2324  MISS %:    54.7676   MPKI: 2.47162
LLC RFO       ACCESS:     817696  HIT:     201145  MISS:     616551  HIT %:     24.599  MISS %:     75.401   MPKI: 12.331
LLC PREFETCH  ACCESS:     760410  HIT:     331452  MISS:     428958  HIT %:    43.5886  MISS %:    56.4114   MPKI: 8.57916
LLC WRITEBACK ACCESS:    1050831  HIT:     368310  MISS:     682521  HIT %:    35.0494  MISS %:    64.9506   MPKI: 13.6504
LLC LOAD TRANSLATION ACCESS:      31176  HIT:      13886  MISS:      17290  HIT %:    44.5407  MISS %:    55.4593   MPKI: 0.3458
LLC TRANSLATION FROM L1D PREFETCHER ACCESS:       1001  HIT:        369  MISS:        632  HIT %:    36.8631  MISS %:    63.1369   MPKI: 0.01264
LLC PREFETCH  REQUESTED:          0  ISSUED:          0  USEFUL:       1498  USELESS:     428049
LLC USEFUL LOAD PREFETCHES:       1498 PREFETCH ISSUED TO LOWER LEVEL:     428958  ACCURACY: 0.349218
LLC TIMELY PREFETCHES:       1498 LATE PREFETCHES: 0 DROPPED PREFETCHES: 0
LLC PREFETCHES SAME FILL-ORIGIN LEVEL: 0 DIFFERENT FILL-ORIGIN LEVEL: 0
LLC AVERAGE MISS LATENCY: 136.586 cycles
LLC RQ	ACCESS:    1075527	FORWARD:          0	MERGED:          0	TO_CACHE:    1075519
LLC WQ	ACCESS:    1050831	FORWARD:          9	MERGED:          0	TO_CACHE:    1050831
LLC PQ	ACCESS:     760411	FORWARD:          0	MERGED:          0	TO_CACHE:     760410

LLC Dense regions hint to LLC: 0

RAW hits: 1251707
Loads Generated: 12088598
Loads sent to L1D: 10836894
Stores Generated: 8175295
Stores sent to L1D: 8175288
Major fault: 0 Minor fault: 24906
Allocated PAGES: 24906
I-Shadow cache 408 bytes
Touched + WorthPF tables 6144 bytes 
MMA filter 174 bytes 
FNL filter 272 bytes 
TOTAL PREFETCHER STORAGE SIZE: 25174 bytes
CPU 0 L1I next line prefetcher final stats
[Bingo] PHT Access: 167002
[Bingo] PHT Hit PC+Addr: 56899
[Bingo] PHT Hit PC+Offs: 90871
[Bingo] PHT Miss: 19232
[Bingo] Prefetch PC+Addr: 0
[Bingo] Prefetch PC+Offs: 0
[Bingo] Useful PC+Addr: 0
[Bingo] Useful PC+Offs: 0
[Bingo] Useless PC+Addr: 0
[Bingo] Useless PC+Offs: 0
[Bingo] L1 Prefetch per Region: 0
[Bingo] L2 Prefetch per Region: 6.51282
[Bingo] L3 Prefetch per Region: 0
[Bingo] No Prefetch per Region: 25.4872
[Bingo] Number of Voters Mean: 14.4069
[Bingo] Number of Voters SD: 9.91252
PHT read accesses: 1841660
PHT write accesses: 107559
AT read accesses: 740107
AT write accesses: 788656
FT read accesses: 377270
FT write accesses: 167002
PS read accesses: 313043
PS write accesses: 147770
PHT tag read accesses: 4711681
PHT tag write accesses: 164458
AT tag read accesses: 48912197
AT tag write accesses: 847653
FT tag read accesses: 41096985
FT tag write accesses: 421124
PS tag read accesses: 19266035
PS tag write accesses: 458392

DRAM Statistics
 CHANNEL 0
 RQ ROW_BUFFER_HIT:     547489  ROW_BUFFER_MISS:     639503
 DBUS_CONGESTED:        551
 WQ ROW_BUFFER_HIT:     144281  ROW_BUFFER_MISS:     577097  FULL:      11891

 AVG_CONGESTED_CYCLE: 3
 All warmup complete: 2
Channel 0 Bank busy for read cycles: 0
Channel 0 Bank busy for write cycles: 0
Channel 0
Rank 0
0banks busy for read cycles: 33238077
0banks busy for write cycles: 67528
1banks busy for read cycles: 12918051
1banks busy for write cycles: 8745590
2banks busy for read cycles: 6494439
2banks busy for write cycles: 5088300
3banks busy for read cycles: 6636877
3banks busy for write cycles: 3384855
4banks busy for read cycles: 2262071
4banks busy for write cycles: 2224065
5banks busy for read cycles: 909945
5banks busy for write cycles: 1629779
6banks busy for read cycles: 931194
6banks busy for write cycles: 1432614
7banks busy for read cycles: 1505100
7banks busy for write cycles: 1848297
8banks busy for read cycles: 6143082
8banks busy for write cycles: 7471684

CPU 0 Branch Prediction Accuracy: 99.2833% MPKI: 1.20566 Average ROB Occupancy at Mispredict: 133.118
Branch types
NOT_BRANCH: 41588317 83.1766%
BRANCH_DIRECT_JUMP: 464500 0.929%
BRANCH_INDIRECT: 45704 0.091408%
BRANCH_CONDITIONAL: 6147405 12.2948%
BRANCH_DIRECT_CALL: 675450 1.3509%
BRANCH_INDIRECT_CALL: 201532 0.403064%
BRANCH_RETURN: 876986 1.75397%
BRANCH_OTHER: 0 0%

DRAM PAGES: 1048576
Allocated PAGES: 24906
