
*** ChampSim Multicore Out-of-Order Simulator ***

Warmup Instructions: 50000000
Simulation Instructions: 50000000
Number of CPUs: 1
LLC sets: 2048
LLC ways: 16
Off-chip DRAM Size: 4096 MB Channels: 1 Width: 64-bit Data Rate: 6400 MT/s
CPU 0 runs ../IPC-traces//server_010.champsimtrace.xz
.xz
NUM_OF_IPS_IN_CRITICAL_IP_TRAINING: 64
NUM_OF_CRITICAL_IP_TRAINING_TABLE_WAYS: 2
NUM_OF_CRITICAL_IP_TRAINING_TABLE_SETS: 32
WOBBLY_CRITICAL_IP_CACHE_SETS: 32
WOBBLY_CRITICAL_IP_CACHE_WAYS: 4
BTB has LRU replacement policy
ITLB has LRU replacement policy
DTLB has LRU replacement policy
STLB has LRU replacement policy
CPU 0 L1I next line prefetcher
L1I has LRU replacement policy
IP Table Entries: 256
L1D has LRU replacement policy
Initialize SRRIP state for L2C
Initialize DRRIP state for LLC
Heartbeat CPU 0 instructions: 10000001 cycles: 2763288 heartbeat IPC: 3.61888 cumulative IPC: 3.61888 (Simulation time: 0 hr 3 min 1 sec) 
Heartbeat CPU 0 instructions: 20000003 cycles: 5518167 heartbeat IPC: 3.62992 cumulative IPC: 3.62439 (Simulation time: 0 hr 5 min 29 sec) 
Heartbeat CPU 0 instructions: 30000001 cycles: 8272325 heartbeat IPC: 3.63087 cumulative IPC: 3.62655 (Simulation time: 0 hr 7 min 50 sec) 
Heartbeat CPU 0 instructions: 40000000 cycles: 11027579 heartbeat IPC: 3.62943 cumulative IPC: 3.62727 (Simulation time: 0 hr 9 min 49 sec) 
Heartbeat CPU 0 instructions: 50000003 cycles: 13783855 heartbeat IPC: 3.62808 cumulative IPC: 3.62743 (Simulation time: 0 hr 11 min 47 sec) 

Warmup complete CPU 0 instructions: 50000003 cycles: 13783855 (Simulation time: 0 hr 11 min 47 sec) 

Heartbeat CPU 0 instructions: 60000001 cycles: 27897646 heartbeat IPC: 0.708527 cumulative IPC: 0.708527 (Simulation time: 0 hr 14 min 13 sec) 
Heartbeat CPU 0 instructions: 70000000 cycles: 42045144 heartbeat IPC: 0.706839 cumulative IPC: 0.707682 (Simulation time: 0 hr 16 min 29 sec) 
Heartbeat CPU 0 instructions: 80000003 cycles: 56204680 heartbeat IPC: 0.706238 cumulative IPC: 0.7072 (Simulation time: 0 hr 18 min 47 sec) 
Heartbeat CPU 0 instructions: 90000002 cycles: 70127804 heartbeat IPC: 0.71823 cumulative IPC: 0.709925 (Simulation time: 0 hr 21 min 5 sec) 
Heartbeat CPU 0 instructions: 100000000 cycles: 96518259 heartbeat IPC: 0.378925 cumulative IPC: 0.604343 (Simulation time: 0 hr 24 min 37 sec) 
Finished CPU 0 instructions: 50000001 cycles: 82734425 cumulative IPC: 0.604343 (Simulation time: 0 hr 24 min 37 sec) 

ChampSim completed all CPUs

Region of Interest Statistics

CPU 0 cumulative IPC: 0.604343 instructions: 50000001 cycles: 82734425

CPU 0 Average Load ROB stall cycles: 2.72315e+07
CPU 0 Fraction of times ROB stalled by Loads: 46.7999
CPU 0 Percentage of Load stall cycles in Total stall cycles: 2.80608e+08
Issued all: 33181415
Issued LT all: 27389619
rob_not_full_when_issued_lt_all: 20959113
Issued LT one: 22145837
rob_not_full_when_issued_lt_one: 16179078
 Total stall cycles: 69267051
 Total load stall cycles: 194368850328390
CPU 0 NUM of IPS identified critical: 0
CPU 0 Num of Load IPs stalling ROB: 23891
Threshold modification factor: 0
Max PIST entries: 64
Min PIST entries: 0
Avg PIST entries: 31.69
Trouble in retire width: 0.916538
MaC = Marked as critical.
lt_50_percent_before_Mac: 0
gt_90_percent_before_Mac: 0
gt_75_percent_before_Mac: 0
gt_50_percent_before_Mac: 0
stall_proportion_bin_same_before_after: 0
stall_proportion_bin_lower_before_after: 0
stall_proportion_bin_upper_before_after: 0
average_stall_proportion_before: -nan
average_stall_proportion_after: -nan
Critical IP stalls, total frequency: 0
Non-critical IP stalls, total frequency: 3340407
Total Freq all stalling IPs: 3340407
stat_90_percent_critical_ip_stalls_freq: 3006387
stat_90_percent_non_critical_ip_stalls_freq: 334020
Critical_IP_ROB_Stalls_Bucket_0: 0
Non-critical_IP_ROB_Stalls_Bucket_0: 1200292
Critical_IP_ROB_Stalls_Bucket_1: 0
Non-critical_IP_ROB_Stalls_Bucket_1: 777294
Critical_IP_ROB_Stalls_Bucket_2: 0
Non-critical_IP_ROB_Stalls_Bucket_2: 369153
Critical_IP_ROB_Stalls_Bucket_3: 0
Non-critical_IP_ROB_Stalls_Bucket_3: 212971
Critical_IP_ROB_Stalls_Bucket_4: 0
Non-critical_IP_ROB_Stalls_Bucket_4: 161853
Critical_IP_ROB_Stalls_Bucket_5: 0
Non-critical_IP_ROB_Stalls_Bucket_5: 159461
Critical_IP_ROB_Stalls_Bucket_6: 0
Non-critical_IP_ROB_Stalls_Bucket_6: 459383
0 => IPs accounting for >50 percent of stalls, 1 => 55, 2 => 60, 3 => 65 and so on till 90.
percent50: 50.07 num IPs:  74
percent55: 55.0519 num IPs: 106
percent60: 60.0564 num IPs: 162
percent65: 65.0201 num IPs: 279
percent70: 70.0125 num IPs: 477
percent75: 75.0047 num IPs: 749
percent80: 80.0073 num IPs: 1200
percent85: 85.0036 num IPs: 2074
percent90: 90.0005 num IPs: 3754
Critical_ROB_Stalls_Percent_0_Bucket_0: 400372
Non-critical_ROB_Stalls_Percent_0_Bucket_0: 799920
Critical_ROB_Stalls_Percent_0_Bucket_1: 279476
Non-critical_ROB_Stalls_Percent_0_Bucket_1: 497818
Critical_ROB_Stalls_Percent_0_Bucket_2: 184075
Non-critical_ROB_Stalls_Percent_0_Bucket_2: 185078
Critical_ROB_Stalls_Percent_0_Bucket_3: 136420
Non-critical_ROB_Stalls_Percent_0_Bucket_3: 76551
Critical_ROB_Stalls_Percent_0_Bucket_4: 120206
Non-critical_ROB_Stalls_Percent_0_Bucket_4: 41647
Critical_ROB_Stalls_Percent_0_Bucket_5: 134283
Non-critical_ROB_Stalls_Percent_0_Bucket_5: 25178
Critical_ROB_Stalls_Percent_0_Bucket_6: 417711
Non-critical_ROB_Stalls_Percent_0_Bucket_6: 41672
Critical_ROB_Stalls_Percent_1_Bucket_0: 452050
Non-critical_ROB_Stalls_Percent_1_Bucket_0: 748242
Critical_ROB_Stalls_Percent_1_Bucket_1: 360860
Non-critical_ROB_Stalls_Percent_1_Bucket_1: 416434
Critical_ROB_Stalls_Percent_1_Bucket_2: 206373
Non-critical_ROB_Stalls_Percent_1_Bucket_2: 162780
Critical_ROB_Stalls_Percent_1_Bucket_3: 140425
Non-critical_ROB_Stalls_Percent_1_Bucket_3: 72546
Critical_ROB_Stalls_Percent_1_Bucket_4: 122015
Non-critical_ROB_Stalls_Percent_1_Bucket_4: 39838
Critical_ROB_Stalls_Percent_1_Bucket_5: 135913
Non-critical_ROB_Stalls_Percent_1_Bucket_5: 23548
Critical_ROB_Stalls_Percent_1_Bucket_6: 421322
Non-critical_ROB_Stalls_Percent_1_Bucket_6: 38061
Critical_ROB_Stalls_Percent_2_Bucket_0: 514166
Non-critical_ROB_Stalls_Percent_2_Bucket_0: 686126
Critical_ROB_Stalls_Percent_2_Bucket_1: 420117
Non-critical_ROB_Stalls_Percent_2_Bucket_1: 357177
Critical_ROB_Stalls_Percent_2_Bucket_2: 229245
Non-critical_ROB_Stalls_Percent_2_Bucket_2: 139908
Critical_ROB_Stalls_Percent_2_Bucket_3: 149851
Non-critical_ROB_Stalls_Percent_2_Bucket_3: 63120
Critical_ROB_Stalls_Percent_2_Bucket_4: 126486
Non-critical_ROB_Stalls_Percent_2_Bucket_4: 35367
Critical_ROB_Stalls_Percent_2_Bucket_5: 137914
Non-critical_ROB_Stalls_Percent_2_Bucket_5: 21547
Critical_ROB_Stalls_Percent_2_Bucket_6: 428348
Non-critical_ROB_Stalls_Percent_2_Bucket_6: 31035
Critical_ROB_Stalls_Percent_3_Bucket_0: 580365
Non-critical_ROB_Stalls_Percent_3_Bucket_0: 619927
Critical_ROB_Stalls_Percent_3_Bucket_1: 475217
Non-critical_ROB_Stalls_Percent_3_Bucket_1: 302077
Critical_ROB_Stalls_Percent_3_Bucket_2: 252259
Non-critical_ROB_Stalls_Percent_3_Bucket_2: 116894
Critical_ROB_Stalls_Percent_3_Bucket_3: 158475
Non-critical_ROB_Stalls_Percent_3_Bucket_3: 54496
Critical_ROB_Stalls_Percent_3_Bucket_4: 131594
Non-critical_ROB_Stalls_Percent_3_Bucket_4: 30259
Critical_ROB_Stalls_Percent_3_Bucket_5: 141351
Non-critical_ROB_Stalls_Percent_3_Bucket_5: 18110
Critical_ROB_Stalls_Percent_3_Bucket_6: 432674
Non-critical_ROB_Stalls_Percent_3_Bucket_6: 26709
Critical_ROB_Stalls_Percent_4_Bucket_0: 646715
Non-critical_ROB_Stalls_Percent_4_Bucket_0: 553577
Critical_ROB_Stalls_Percent_4_Bucket_1: 527057
Non-critical_ROB_Stalls_Percent_4_Bucket_1: 250237
Critical_ROB_Stalls_Percent_4_Bucket_2: 275028
Non-critical_ROB_Stalls_Percent_4_Bucket_2: 94125
Critical_ROB_Stalls_Percent_4_Bucket_3: 168362
Non-critical_ROB_Stalls_Percent_4_Bucket_3: 44609
Critical_ROB_Stalls_Percent_4_Bucket_4: 137523
Non-critical_ROB_Stalls_Percent_4_Bucket_4: 24330
Critical_ROB_Stalls_Percent_4_Bucket_5: 145484
Non-critical_ROB_Stalls_Percent_4_Bucket_5: 13977
Critical_ROB_Stalls_Percent_4_Bucket_6: 438533
Non-critical_ROB_Stalls_Percent_4_Bucket_6: 20850
Critical_ROB_Stalls_Percent_5_Bucket_0: 722391
Non-critical_ROB_Stalls_Percent_5_Bucket_0: 477901
Critical_ROB_Stalls_Percent_5_Bucket_1: 589442
Non-critical_ROB_Stalls_Percent_5_Bucket_1: 187852
Critical_ROB_Stalls_Percent_5_Bucket_2: 290112
Non-critical_ROB_Stalls_Percent_5_Bucket_2: 79041
Critical_ROB_Stalls_Percent_5_Bucket_3: 173917
Non-critical_ROB_Stalls_Percent_5_Bucket_3: 39054
Critical_ROB_Stalls_Percent_5_Bucket_4: 140868
Non-critical_ROB_Stalls_Percent_5_Bucket_4: 20985
Critical_ROB_Stalls_Percent_5_Bucket_5: 147837
Non-critical_ROB_Stalls_Percent_5_Bucket_5: 11624
Critical_ROB_Stalls_Percent_5_Bucket_6: 440896
Non-critical_ROB_Stalls_Percent_5_Bucket_6: 18487
Critical_ROB_Stalls_Percent_6_Bucket_0: 818198
Non-critical_ROB_Stalls_Percent_6_Bucket_0: 382094
Critical_ROB_Stalls_Percent_6_Bucket_1: 633046
Non-critical_ROB_Stalls_Percent_6_Bucket_1: 144248
Critical_ROB_Stalls_Percent_6_Bucket_2: 304041
Non-critical_ROB_Stalls_Percent_6_Bucket_2: 65112
Critical_ROB_Stalls_Percent_6_Bucket_3: 179852
Non-critical_ROB_Stalls_Percent_6_Bucket_3: 33119
Critical_ROB_Stalls_Percent_6_Bucket_4: 144071
Non-critical_ROB_Stalls_Percent_6_Bucket_4: 17782
Critical_ROB_Stalls_Percent_6_Bucket_5: 150118
Non-critical_ROB_Stalls_Percent_6_Bucket_5: 9343
Critical_ROB_Stalls_Percent_6_Bucket_6: 443246
Non-critical_ROB_Stalls_Percent_6_Bucket_6: 16137
Critical_ROB_Stalls_Percent_7_Bucket_0: 903752
Non-critical_ROB_Stalls_Percent_7_Bucket_0: 296540
Critical_ROB_Stalls_Percent_7_Bucket_1: 676535
Non-critical_ROB_Stalls_Percent_7_Bucket_1: 100759
Critical_ROB_Stalls_Percent_7_Bucket_2: 322723
Non-critical_ROB_Stalls_Percent_7_Bucket_2: 46430
Critical_ROB_Stalls_Percent_7_Bucket_3: 188404
Non-critical_ROB_Stalls_Percent_7_Bucket_3: 24567
Critical_ROB_Stalls_Percent_7_Bucket_4: 148869
Non-critical_ROB_Stalls_Percent_7_Bucket_4: 12984
Critical_ROB_Stalls_Percent_7_Bucket_5: 152782
Non-critical_ROB_Stalls_Percent_7_Bucket_5: 6679
Critical_ROB_Stalls_Percent_7_Bucket_6: 446406
Non-critical_ROB_Stalls_Percent_7_Bucket_6: 12977
Critical_ROB_Stalls_Percent_8_Bucket_0: 996796
Non-critical_ROB_Stalls_Percent_8_Bucket_0: 203496
Critical_ROB_Stalls_Percent_8_Bucket_1: 714707
Non-critical_ROB_Stalls_Percent_8_Bucket_1: 62587
Critical_ROB_Stalls_Percent_8_Bucket_2: 338265
Non-critical_ROB_Stalls_Percent_8_Bucket_2: 30888
Critical_ROB_Stalls_Percent_8_Bucket_3: 196202
Non-critical_ROB_Stalls_Percent_8_Bucket_3: 16769
Critical_ROB_Stalls_Percent_8_Bucket_4: 153888
Non-critical_ROB_Stalls_Percent_8_Bucket_4: 7965
Critical_ROB_Stalls_Percent_8_Bucket_5: 155141
Non-critical_ROB_Stalls_Percent_8_Bucket_5: 4320
Critical_ROB_Stalls_Percent_8_Bucket_6: 451388
Non-critical_ROB_Stalls_Percent_8_Bucket_6: 7995
Average ROB occupancy Load Stall Begin: 113.325
Average ROB occupancy Load Stall End: 122.649
Min ROB occupancy Load Stall Begin: 1
Max ROB occupancy Load Stall Begin: 352
Min ROB occupancy Load Stall End: 1
Max ROB occupancy Load Stall End: 352
Average ROB occupancy Critical Load Stall Begin: -nan
Average ROB occupancy Critical Load Stall End: -nan
Min ROB occupancy Critical Load Stall Begin: 400
Max ROB occupancy Critical Load Stall Begin: 0
Min ROB occupancy Critical Load Stall End: 400
Max ROB occupancy Critical Load Stall End: 0
 ROB Load Stall Begin Bucket Count 0: 1488355
 ROB Load Stall End Bucket Count 0: 1200292
 ROB Critical Load Stall Begin Bucket Count 0: 0
 ROB Critical Load Stall End Bucket Count 0: 0
 ROB Load Stall Begin Bucket Count 1: 603756
 ROB Load Stall End Bucket Count 1: 777294
 ROB Critical Load Stall Begin Bucket Count 1: 0
 ROB Critical Load Stall End Bucket Count 1: 0
 ROB Load Stall Begin Bucket Count 2: 308748
 ROB Load Stall End Bucket Count 2: 369153
 ROB Critical Load Stall Begin Bucket Count 2: 0
 ROB Critical Load Stall End Bucket Count 2: 0
 ROB Load Stall Begin Bucket Count 3: 187701
 ROB Load Stall End Bucket Count 3: 212971
 ROB Critical Load Stall Begin Bucket Count 3: 0
 ROB Critical Load Stall End Bucket Count 3: 0
 ROB Load Stall Begin Bucket Count 4: 154035
 ROB Load Stall End Bucket Count 4: 161853
 ROB Critical Load Stall Begin Bucket Count 4: 0
 ROB Critical Load Stall End Bucket Count 4: 0
 ROB Load Stall Begin Bucket Count 5: 153458
 ROB Load Stall End Bucket Count 5: 159461
 ROB Critical Load Stall Begin Bucket Count 5: 0
 ROB Critical Load Stall End Bucket Count 5: 0
 ROB Load Stall Begin Bucket Count 6: 444354
 ROB Load Stall End Bucket Count 6: 459383
 ROB Critical Load Stall Begin Bucket Count 6: 0
 ROB Critical Load Stall End Bucket Count 6: 0
PIST Tag Read Accesses: 2268654
PIST Read Accesses: 1134327
PIST Tag Write Accesses: 2268654
PIST Write Accesses: 1134327
Criticality detector called times: 2328920
Max global_stall_cycles_count: 3341066
Threshold Modified: 0 times, factor: 0
Sturdy critical IP cache stats: 
 Unused entries: 0
CIC Tag Read Accesses: 0
CIC Read Accesses: 0
CIC Tag Write Accesses: 0
CIC Write Accesses: 0
Wobbly critical IP cache stats: 
 Unused entries: 108
CIC Tag Read Accesses: 142655541
CIC Read Accesses: 0
CIC Tag Write Accesses: 29527
CIC Write Accesses: 0
ITLB TOTAL     ACCESS:    9493426  HIT:    9278156  MISS:     215270  HIT %:    97.7324  MISS %:    2.26757   MPKI: 4.3054
ITLB LOAD TRANSLATION ACCESS:    8361837  HIT:    8301557  MISS:      60280  HIT %:    99.2791  MISS %:   0.720894   MPKI: 1.2056
ITLB TRANSLATION FROM L1D PREFETCHER ACCESS:    1131589  HIT:     976599  MISS:     154990  HIT %:    86.3033  MISS %:    13.6967   MPKI: 3.0998
ITLB PREFETCH  REQUESTED:          0  ISSUED:          0  USEFUL:     127016  USELESS:      27972
ITLB USEFUL LOAD PREFETCHES:     127016 PREFETCH ISSUED TO LOWER LEVEL:          0  ACCURACY: inf
ITLB TIMELY PREFETCHES:     127016 LATE PREFETCHES: 836 DROPPED PREFETCHES: 13778
ITLB PREFETCHES SAME FILL-ORIGIN LEVEL: 0 DIFFERENT FILL-ORIGIN LEVEL: 0
ITLB AVERAGE MISS LATENCY: 176940 cycles
ITLB RQ	ACCESS:   12909403	FORWARD:          0	MERGED:    3375179	TO_CACHE:    9534224

DTLB TOTAL     ACCESS:   10006322  HIT:    8691483  MISS:    1314839  HIT %:    86.8599  MISS %:    13.1401   MPKI: 26.2968
DTLB LOAD TRANSLATION ACCESS:   10006322  HIT:    8691483  MISS:    1314839  HIT %:    86.8599  MISS %:    13.1401   MPKI: 26.2968
DTLB PREFETCH  REQUESTED:          0  ISSUED:          0  USEFUL:          0  USELESS:          0
DTLB USEFUL LOAD PREFETCHES:          0 PREFETCH ISSUED TO LOWER LEVEL:          0  ACCURACY: -nan
DTLB TIMELY PREFETCHES:          0 LATE PREFETCHES: 0 DROPPED PREFETCHES: 0
DTLB PREFETCHES SAME FILL-ORIGIN LEVEL: 0 DIFFERENT FILL-ORIGIN LEVEL: 0
DTLB AVERAGE MISS LATENCY: 11.6578 cycles
DTLB RQ	ACCESS:   13006502	FORWARD:          0	MERGED:    2961156	TO_CACHE:   10045346

STLB TOTAL     ACCESS:    2456167  HIT:    2349124  MISS:     107043  HIT %:    95.6419  MISS %:    4.35813   MPKI: 2.14086
STLB LOAD TRANSLATION ACCESS:    1374283  HIT:    1291988  MISS:      82295  HIT %:    94.0118  MISS %:    5.98821   MPKI: 1.6459
STLB TRANSLATION FROM L1D PREFETCHER ACCESS:    1081884  HIT:    1057136  MISS:      24748  HIT %:    97.7125  MISS %:    2.28749   MPKI: 0.49496
STLB PREFETCH  REQUESTED:          0  ISSUED:          0  USEFUL:      14374  USELESS:      10346
STLB USEFUL LOAD PREFETCHES:      14374 PREFETCH ISSUED TO LOWER LEVEL:          0  ACCURACY: inf
STLB TIMELY PREFETCHES:      14374 LATE PREFETCHES: 8 DROPPED PREFETCHES: 13778
STLB PREFETCHES SAME FILL-ORIGIN LEVEL: 0 DIFFERENT FILL-ORIGIN LEVEL: 0
STLB AVERAGE MISS LATENCY: 46.2653 cycles
STLB RQ	ACCESS:    3473725	FORWARD:          0	MERGED:    1003773	TO_CACHE:    2469952

STLB Hit, L1D data hit: 0
STLB Hit, L2C data hit: 0
STLB Hit, LLC data hit: 0
STLB Hit, LLC data miss: 0
STLB STLB hints to L2: 0
L1D TOTAL     ACCESS:   14733598  HIT:   11984446  MISS:    2749152  HIT %:    81.3409  MISS %:    18.6591   MPKI: 54.983
L1D LOAD      ACCESS:    8113086  HIT:    6579585  MISS:    1533501  HIT %:    81.0984  MISS %:    18.9016   MPKI: 30.67
L1D RFO       ACCESS:    4723932  HIT:    4621234  MISS:     102698  HIT %:     97.826  MISS %:    2.17399   MPKI: 2.05396
L1D PREFETCH  ACCESS:    1896580  HIT:     783627  MISS:    1112953  HIT %:    41.3179  MISS %:    58.6821   MPKI: 22.2591
L1D PREFETCH  REQUESTED:    3860665  ISSUED:    3859682  USEFUL:      89430  USELESS:    1023226
L1D USEFUL LOAD PREFETCHES:      89430 PREFETCH ISSUED TO LOWER LEVEL:    1139713  ACCURACY: 7.84671
L1D TIMELY PREFETCHES:      89430 LATE PREFETCHES: 26760 DROPPED PREFETCHES: 0
L1D PREFETCHES SAME FILL-ORIGIN LEVEL: 1139713 DIFFERENT FILL-ORIGIN LEVEL: 0
L1D AVERAGE MISS LATENCY: 833772 cycles
L1D RQ	ACCESS:   11600527	FORWARD:          0	MERGED:    3372022	TO_CACHE:    8148710
L1D WQ	ACCESS:    4965307	FORWARD:      79795	MERGED:     107515	TO_CACHE:    4857792
L1D PQ	ACCESS:    1929843	FORWARD:          0	MERGED:          4	TO_CACHE:    1929839

L1D UNIQUE REGIONS ACCESSED: 0
L1D REGIONS CONFLICTS: 0
L1D Cross Page Prefetch Requests: 0
L1D Same Page Prefetch Requests: 1929843
L1D ROI Sum of L1D PQ occupancy: 25468738
L1D PREFETCHES PUSHED FROM L2C: 0
L1I TOTAL     ACCESS:   12745375  HIT:   10931192  MISS:    1814183  HIT %:     85.766  MISS %:     14.234   MPKI: 36.2837
L1I LOAD      ACCESS:   10106971  HIT:    9888676  MISS:     218295  HIT %:    97.8402  MISS %:    2.15985   MPKI: 4.3659
L1I PREFETCH  ACCESS:    2638404  HIT:    1042516  MISS:    1595888  HIT %:    39.5131  MISS %:    60.4869   MPKI: 31.9178
L1I PREFETCH  REQUESTED:    2871794  ISSUED:    2864384  USEFUL:    1053182  USELESS:     542671
L1I USEFUL LOAD PREFETCHES:    1053182 PREFETCH ISSUED TO LOWER LEVEL:    1625655  ACCURACY: 64.7851
L1I TIMELY PREFETCHES:    1053182 LATE PREFETCHES: 29769 DROPPED PREFETCHES: 45667
L1I PREFETCHES SAME FILL-ORIGIN LEVEL: 1625655 DIFFERENT FILL-ORIGIN LEVEL: 0
L1I AVERAGE MISS LATENCY: 744395 cycles
L1I RQ	ACCESS:   14582333	FORWARD:          0	MERGED:    4451318	TO_CACHE:   10131015
L1I PQ	ACCESS:    2864384	FORWARD:          0	MERGED:      85996	TO_CACHE:    2778388

BTB TOTAL     ACCESS:    5599982  HIT:    4872063  MISS:     727919  HIT %:    87.0014  MISS %:    12.9986   MPKI: 14.5584
BTB BRANCH_DIRECT_JUMP	ACCESS:     449946  HIT:     393873  MISS:      56073
BTB BRANCH_INDIRECT	ACCESS:     140210  HIT:     110632  MISS:      29578
BTB BRANCH_CONDITIONAL	ACCESS:    3238717  HIT:    3009562  MISS:     229155
BTB BRANCH_DIRECT_CALL	ACCESS:     701578  HIT:     595974  MISS:     105604
BTB BRANCH_INDIRECT_CALL	ACCESS:     168971  HIT:     157981  MISS:      10990
BTB BRANCH_RETURN	ACCESS:     900560  HIT:     604041  MISS:     296519
BTB BRANCH_OTHER ACCESS:          0  HIT:          0  MISS:          0

L2C TOTAL     ACCESS:    5107377  HIT:    3995842  MISS:    1111535  HIT %:    78.2367  MISS %:    21.7633   MPKI: 22.2307
L2C LOAD      ACCESS:    1695243  HIT:    1327890  MISS:     367353  HIT %:    78.3304  MISS %:    21.6696   MPKI: 7.34706
L2C DATA LOAD MPKI: 5.77386
L2C INSTRUCTION LOAD MPKI: 1.5732
L2C RFO       ACCESS:     102698  HIT:      56059  MISS:      46639  HIT %:    54.5863  MISS %:    45.4137   MPKI: 0.93278
L2C PREFETCH  ACCESS:    2898882  HIT:    2279874  MISS:     619008  HIT %:    78.6467  MISS %:    21.3533   MPKI: 12.3802
L2C DATA PREFETCH MPKI: 1.03432
L2C INSTRUCTION PREFETCH MPKI: 11.3458
L2C WRITEBACK ACCESS:     249499  HIT:     227535  MISS:      21964  HIT %:    91.1968  MISS %:    8.80324   MPKI: 0.43928
L2C LOAD TRANSLATION ACCESS:     108457  HIT:      61709  MISS:      46748  HIT %:    56.8972  MISS %:    43.1028   MPKI: 0.93496
L2C TRANSLATION FROM L1D PREFETCHER ACCESS:      52598  HIT:      42775  MISS:       9823  HIT %:    81.3244  MISS %:    18.6756   MPKI: 0.19646
L2C PREFETCH  REQUESTED:     415858  ISSUED:     415858  USEFUL:      19354  USELESS:     609908
L2C USEFUL LOAD PREFETCHES:      19354 PREFETCH ISSUED TO LOWER LEVEL:     619066  ACCURACY: 3.12632
L2C TIMELY PREFETCHES:      19354 LATE PREFETCHES: 58 DROPPED PREFETCHES: 0
L2C PREFETCHES SAME FILL-ORIGIN LEVEL: 51636 DIFFERENT FILL-ORIGIN LEVEL: 0
L2C AVERAGE MISS LATENCY: 39.3389 cycles
L2C RQ	ACCESS:    1959020	FORWARD:          0	MERGED:          0	TO_CACHE:    1958996
L2C WQ	ACCESS:     249499	FORWARD:         24	MERGED:          0	TO_CACHE:     249499
L2C PQ	ACCESS:    3181226	FORWARD:          0	MERGED:     276102	TO_CACHE:    2905124

L2C Instructions Evicting Data 237202
L2C Translations Evicting Data 20750
L2C Data Evicting Data 141117
L2C Instructions Evicting Instructions 376102
L2C Translations Evicting Instructions 32904
L2C Data Evicting Instructions 225845
L2C Instructions Evicting Translations 32648
L2C Translations Evicting Translations 2917
L2C Data Evicting Translations 20086
L2C Dense regions hint from L2: 0
PSCL5 TOTAL     ACCESS:     120820  HIT:     120820  MISS:          0  HIT %:        100  MISS %:          0   MPKI: 0
PSCL5 LOAD TRANSLATION ACCESS:      82286  HIT:      82286  MISS:          0  HIT %:        100  MISS %:          0   MPKI: 0
PSCL5 TRANSLATION FROM L1D PREFETCHER ACCESS:      38534  HIT:      38534  MISS:          0  HIT %:        100  MISS %:          0   MPKI: 0
PSCL5 PREFETCH  REQUESTED:          0  ISSUED:          0  USEFUL:          0  USELESS:          0
PSCL5 USEFUL LOAD PREFETCHES:          0 PREFETCH ISSUED TO LOWER LEVEL:          0  ACCURACY: -nan
PSCL5 TIMELY PREFETCHES:          0 LATE PREFETCHES: 0 DROPPED PREFETCHES: 0
PSCL5 PREFETCHES SAME FILL-ORIGIN LEVEL: 0 DIFFERENT FILL-ORIGIN LEVEL: 0

PSCL4 TOTAL     ACCESS:     109431  HIT:     109148  MISS:        283  HIT %:    99.7414  MISS %:    0.25861   MPKI: 0.00566
PSCL4 LOAD TRANSLATION ACCESS:      74623  HIT:      74340  MISS:        283  HIT %:    99.6208  MISS %:    0.37924   MPKI: 0.00566
PSCL4 TRANSLATION FROM L1D PREFETCHER ACCESS:      34808  HIT:      34808  MISS:          0  HIT %:        100  MISS %:          0   MPKI: 0
PSCL4 PREFETCH  REQUESTED:          0  ISSUED:          0  USEFUL:          0  USELESS:          0
PSCL4 USEFUL LOAD PREFETCHES:          0 PREFETCH ISSUED TO LOWER LEVEL:          0  ACCURACY: -nan
PSCL4 TIMELY PREFETCHES:          0 LATE PREFETCHES: 0 DROPPED PREFETCHES: 0
PSCL4 PREFETCHES SAME FILL-ORIGIN LEVEL: 0 DIFFERENT FILL-ORIGIN LEVEL: 0

PSCL3 TOTAL     ACCESS:     118187  HIT:     117351  MISS:        836  HIT %:    99.2926  MISS %:   0.707354   MPKI: 0.01672
PSCL3 LOAD TRANSLATION ACCESS:      81869  HIT:      81033  MISS:        836  HIT %:    98.9789  MISS %:    1.02114   MPKI: 0.01672
PSCL3 TRANSLATION FROM L1D PREFETCHER ACCESS:      36318  HIT:      36318  MISS:          0  HIT %:        100  MISS %:          0   MPKI: 0
PSCL3 PREFETCH  REQUESTED:          0  ISSUED:          0  USEFUL:          0  USELESS:          0
PSCL3 USEFUL LOAD PREFETCHES:          0 PREFETCH ISSUED TO LOWER LEVEL:          0  ACCURACY: -nan
PSCL3 TIMELY PREFETCHES:          0 LATE PREFETCHES: 0 DROPPED PREFETCHES: 0
PSCL3 PREFETCHES SAME FILL-ORIGIN LEVEL: 0 DIFFERENT FILL-ORIGIN LEVEL: 0

PSCL2 TOTAL     ACCESS:     111438  HIT:      82949  MISS:      28489  HIT %:    74.4351  MISS %:    25.5649   MPKI: 0.56978
PSCL2 LOAD TRANSLATION ACCESS:      85496  HIT:      57007  MISS:      28489  HIT %:     66.678  MISS %:     33.322   MPKI: 0.56978
PSCL2 TRANSLATION FROM L1D PREFETCHER ACCESS:      25942  HIT:      25942  MISS:          0  HIT %:        100  MISS %:          0   MPKI: 0
PSCL2 PREFETCH  REQUESTED:          0  ISSUED:          0  USEFUL:          0  USELESS:          0
PSCL2 USEFUL LOAD PREFETCHES:          0 PREFETCH ISSUED TO LOWER LEVEL:          0  ACCURACY: -nan
PSCL2 TIMELY PREFETCHES:          0 LATE PREFETCHES: 0 DROPPED PREFETCHES: 0
PSCL2 PREFETCHES SAME FILL-ORIGIN LEVEL: 0 DIFFERENT FILL-ORIGIN LEVEL: 0

LLC TOTAL     ACCESS:    1212347  HIT:    1145115  MISS:      67232  HIT %:    94.4544  MISS %:    5.54561   MPKI: 1.34464
LLC LOAD      ACCESS:     367292  HIT:     320217  MISS:      47075  HIT %:    87.1832  MISS %:    12.8168   MPKI: 0.9415
LLC RFO       ACCESS:      46639  HIT:      35670  MISS:      10969  HIT %:    76.4811  MISS %:    23.5189   MPKI: 0.21938
LLC PREFETCH  ACCESS:     619066  HIT:     611342  MISS:       7724  HIT %:    98.7523  MISS %:    1.24769   MPKI: 0.15448
LLC WRITEBACK ACCESS:     122779  HIT:     122307  MISS:        472  HIT %:    99.6156  MISS %:   0.384431   MPKI: 0.00944
LLC LOAD TRANSLATION ACCESS:      46748  HIT:      45779  MISS:        969  HIT %:    97.9272  MISS %:    2.07282   MPKI: 0.01938
LLC TRANSLATION FROM L1D PREFETCHER ACCESS:       9823  HIT:       9800  MISS:         23  HIT %:    99.7659  MISS %:   0.234144   MPKI: 0.00046
LLC PREFETCH  REQUESTED:          0  ISSUED:          0  USEFUL:        608  USELESS:       5315
LLC USEFUL LOAD PREFETCHES:        608 PREFETCH ISSUED TO LOWER LEVEL:       7724  ACCURACY: 7.87157
LLC TIMELY PREFETCHES:        608 LATE PREFETCHES: 0 DROPPED PREFETCHES: 0
LLC PREFETCHES SAME FILL-ORIGIN LEVEL: 0 DIFFERENT FILL-ORIGIN LEVEL: 0
LLC AVERAGE MISS LATENCY: 163.149 cycles
LLC RQ	ACCESS:     470505	FORWARD:          0	MERGED:          0	TO_CACHE:     470502
LLC WQ	ACCESS:     122779	FORWARD:          3	MERGED:          0	TO_CACHE:     122779
LLC PQ	ACCESS:     619066	FORWARD:          0	MERGED:          0	TO_CACHE:     619066

LLC Dense regions hint to LLC: 0

RAW hits: 1007690
Loads Generated: 12608216
Loads sent to L1D: 11600527
Stores Generated: 4965302
Stores sent to L1D: 4965307
Major fault: 0 Minor fault: 5909
Allocated PAGES: 5909
I-Shadow cache 408 bytes
Touched + WorthPF tables 6144 bytes 
MMA filter 174 bytes 
FNL filter 272 bytes 
TOTAL PREFETCHER STORAGE SIZE: 25174 bytes
CPU 0 L1I next line prefetcher final stats

stream: 
stream:times selected: 1287633
stream:pref_filled: 734652
stream:pref_useful: 17373
stream:pref_late: 126
stream:misses: 523855
stream:misses_by_poll: 0

CS: 
CS:times selected: 351364
CS:pref_filled: 152744
CS:pref_useful: 27614
CS:pref_late: 5
CS:misses: 21303
CS:misses_by_poll: 0

CPLX: 
CPLX:times selected: 1167351
CPLX:pref_filled: 225552
CPLX:pref_useful: 44443
CPLX:pref_late: 9
CPLX:misses: 451212
CPLX:misses_by_poll: 0

NL_L1: 
NL:times selected: 13627
NL:pref_filled: 2
NL:pref_useful: 0
NL:pref_late: 0
NL:misses: 1
NL:misses_by_poll: 0

total selections: 2819975
total_filled: 1112953
total_useful: 89430
total_late: 26760
total_polluted: 0
total_misses_after_warmup: 997921
conflicts: 20
Degree Incremented Times: 0
Degree Decremented Times: 19524

L1 IP Table Write Accesses: 1685349
L1 IP Table Read Accesses: 1685329
L1 RST Write Accesses: 1287635
L1 RST Read Accesses: 2575261
L1 CSPT Write Accesses: 1287635
L1 CSPT Read Accesses: 2457074
L1 RR Filter Tag Write Accesses: 1930826
L1 RR Filter Tag Read Accesses: 74705796
L1 IP Table Tag Write Accesses: 1689963
L1 IP Table Tag Read Accesses: 1689963
L1 RST Tag Write Accesses: 56
L1 RST Tag Read Accesses: 10353615
L1 RR Filter Write Accesses: 0
L1 RR Filter Read Accesses: 2350346
test: 730634
L2 IP Table Read Accesses: 2483973
L2 IP Table Write Accesses: 1934322
L2 IP Table Tag Read Accesses: 1453044
L2 IP Table Tag Write Accesses: 1453044

DRAM Statistics
 CHANNEL 0
 RQ ROW_BUFFER_HIT:       9592  ROW_BUFFER_MISS:      57168
 DBUS_CONGESTED:         27
 WQ ROW_BUFFER_HIT:       9627  ROW_BUFFER_MISS:      41715  FULL:          0

 AVG_CONGESTED_CYCLE: 4
 All warmup complete: 2
Channel 0 Bank busy for read cycles: 0
Channel 0 Bank busy for write cycles: 0
Channel 0
Rank 0
0banks busy for read cycles: 71090539
0banks busy for write cycles: 22983
1banks busy for read cycles: 5158536
1banks busy for write cycles: 3102136
2banks busy for read cycles: 1069868
2banks busy for write cycles: 946796
3banks busy for read cycles: 217266
3banks busy for write cycles: 315692
4banks busy for read cycles: 82993
4banks busy for write cycles: 163293
5banks busy for read cycles: 48815
5banks busy for write cycles: 109818
6banks busy for read cycles: 44108
6banks busy for write cycles: 84684
7banks busy for read cycles: 20493
7banks busy for write cycles: 94634
8banks busy for read cycles: 17237
8banks busy for write cycles: 144535

CPU 0 Branch Prediction Accuracy: 99.5528% MPKI: 0.89798 Average ROB Occupancy at Mispredict: 63.1338
Branch types
NOT_BRANCH: 39958758 79.9175%
BRANCH_DIRECT_JUMP: 449946 0.899892%
BRANCH_INDIRECT: 140210 0.28042%
BRANCH_CONDITIONAL: 7679656 15.3593%
BRANCH_DIRECT_CALL: 701578 1.40316%
BRANCH_INDIRECT_CALL: 168971 0.337942%
BRANCH_RETURN: 900560 1.80112%
BRANCH_OTHER: 0 0%

DRAM PAGES: 1048576
Allocated PAGES: 5909
