
*** ChampSim Multicore Out-of-Order Simulator ***

Warmup Instructions: 50000000
Simulation Instructions: 50000000
Number of CPUs: 1
LLC sets: 2048
LLC ways: 16
Off-chip DRAM Size: 4096 MB Channels: 1 Width: 64-bit Data Rate: 6400 MT/s
CPU 0 runs ../IPC-traces//server_017.champsimtrace.xz
.xz
BTB has LRU replacement policy
ITLB has LRU replacement policy
DTLB has LRU replacement policy
STLB has LRU replacement policy
CPU 0 L1I next line prefetcher
L1I has LRU replacement policy
L1D has LRU replacement policy
Bingo PHT WAYS: 16 and PHT_SIZE: 16384
Initialize SRRIP state for L2C
Initialize DRRIP state for LLC
Heartbeat CPU 0 instructions: 10000000 cycles: 3277236 heartbeat IPC: 3.05135 cumulative IPC: 3.05135 (Simulation time: 0 hr 3 min 33 sec) 
Heartbeat CPU 0 instructions: 20000000 cycles: 6547768 heartbeat IPC: 3.05761 cumulative IPC: 3.05448 (Simulation time: 0 hr 6 min 26 sec) 
Heartbeat CPU 0 instructions: 30000002 cycles: 9824096 heartbeat IPC: 3.0522 cumulative IPC: 3.05372 (Simulation time: 0 hr 9 min 12 sec) 
Heartbeat CPU 0 instructions: 40000000 cycles: 13099194 heartbeat IPC: 3.05334 cumulative IPC: 3.05362 (Simulation time: 0 hr 11 min 38 sec) 
Heartbeat CPU 0 instructions: 50000000 cycles: 16394407 heartbeat IPC: 3.03471 cumulative IPC: 3.04982 (Simulation time: 0 hr 13 min 53 sec) 

Warmup complete CPU 0 instructions: 50000004 cycles: 16394408 (Simulation time: 0 hr 13 min 53 sec) 

Heartbeat CPU 0 instructions: 60000000 cycles: 36909598 heartbeat IPC: 0.487444 cumulative IPC: 0.487444 (Simulation time: 0 hr 17 min 31 sec) 
Heartbeat CPU 0 instructions: 70000000 cycles: 57071578 heartbeat IPC: 0.495983 cumulative IPC: 0.491676 (Simulation time: 0 hr 21 min 6 sec) 
Heartbeat CPU 0 instructions: 80000000 cycles: 76963827 heartbeat IPC: 0.502708 cumulative IPC: 0.495299 (Simulation time: 0 hr 24 min 37 sec) 
Heartbeat CPU 0 instructions: 90000002 cycles: 101586519 heartbeat IPC: 0.40613 cumulative IPC: 0.469527 (Simulation time: 0 hr 28 min 29 sec) 
Heartbeat CPU 0 instructions: 100000003 cycles: 125582451 heartbeat IPC: 0.416737 cumulative IPC: 0.457926 (Simulation time: 0 hr 31 min 40 sec) 
Finished CPU 0 instructions: 50000003 cycles: 109188060 cumulative IPC: 0.457926 (Simulation time: 0 hr 31 min 40 sec) 

ChampSim completed all CPUs

Region of Interest Statistics

CPU 0 cumulative IPC: 0.457926 instructions: 50000003 cycles: 109188060

CPU 0 Average Load ROB stall cycles: 3.16545e+07
CPU 0 Fraction of times ROB stalled by Loads: 46.2449
CPU 0 Percentage of Load stall cycles in Total stall cycles: 2.41912e+08
Issued all: 50503295
Issued LT all: 45096297
rob_not_full_when_issued_lt_all: 17166794
Issued LT one: 39491689
rob_not_full_when_issued_lt_one: 13229965
FVP critical_dynamic_instances_0: 3106330
FVP unique_critical_ips_0: 2972
 Total stall cycles: 92447654
 Total load stall cycles: 223641920312158
Unique Load IPs: 6875
CPU 0 NUM of IPS identified critical: 0
CPU 0 Num of Load IPs stalling ROB: 0
Threshold modification factor: 0
Trouble in retire width: -nan
MaC = Marked as critical.
lt_50_percent_before_Mac: 0
gt_90_percent_before_Mac: 0
gt_75_percent_before_Mac: 0
gt_50_percent_before_Mac: 0
stall_proportion_bin_same_before_after: 0
stall_proportion_bin_lower_before_after: 0
stall_proportion_bin_upper_before_after: 0
average_stall_proportion_before: -nan
average_stall_proportion_after: -nan
Critical IP stalls, total frequency: 0
Non-critical IP stalls, total frequency: 0
Total Freq all stalling IPs: 0
Critical_IP_Detector_Accuracy_70: 0.000336474
Critical_IP_Detector_Accuracy_80: 0.000336474
Critical_IP_Detector_Accuracy_90: 0.000336474
Critical_IP_Detector_Coverage_70: 1
Critical_IP_Detector_Coverage_80: 1
Critical_IP_Detector_Coverage_90: 1
stat_90_percent_critical_ip_stalls_freq: 259293
stat_90_percent_non_critical_ip_stalls_freq: 18446744073709292323
AVERAGE_ROB_Occupancy_90_Percent_Critical_IP_Stalls: 314.046
AVERAGE_ROB_Occupancy_90_Percent_Non_Critical_IP_Stalls: 2.94752e-11
Critical_IP_ROB_Stalls_Bucket_0: 0
Non-critical_IP_ROB_Stalls_Bucket_0: 472548
Critical_IP_ROB_Stalls_Bucket_1: 0
Non-critical_IP_ROB_Stalls_Bucket_1: 596913
Critical_IP_ROB_Stalls_Bucket_2: 0
Non-critical_IP_ROB_Stalls_Bucket_2: 476352
Critical_IP_ROB_Stalls_Bucket_3: 0
Non-critical_IP_ROB_Stalls_Bucket_3: 329438
Critical_IP_ROB_Stalls_Bucket_4: 0
Non-critical_IP_ROB_Stalls_Bucket_4: 182812
Critical_IP_ROB_Stalls_Bucket_5: 0
Non-critical_IP_ROB_Stalls_Bucket_5: 166012
Critical_IP_ROB_Stalls_Bucket_6: 0
Non-critical_IP_ROB_Stalls_Bucket_6: 1043172
0 => IPs accounting for >50 percent of stalls, 1 => 55, 2 => 60, 3 => 65 and so on till 90.
percent50: inf num IPs:  1
percent55: inf num IPs: 1
percent60: inf num IPs: 1
percent65: inf num IPs: 1
percent70: inf num IPs: 1
percent75: inf num IPs: 1
percent80: inf num IPs: 1
percent85: inf num IPs: 1
percent90: inf num IPs: 1
Critical_ROB_Stalls_Percent_0_Bucket_0: 529
Non-critical_ROB_Stalls_Percent_0_Bucket_0: 472019
Critical_ROB_Stalls_Percent_0_Bucket_1: 2763
Non-critical_ROB_Stalls_Percent_0_Bucket_1: 594150
Critical_ROB_Stalls_Percent_0_Bucket_2: 11979
Non-critical_ROB_Stalls_Percent_0_Bucket_2: 464373
Critical_ROB_Stalls_Percent_0_Bucket_3: 17586
Non-critical_ROB_Stalls_Percent_0_Bucket_3: 311852
Critical_ROB_Stalls_Percent_0_Bucket_4: 14464
Non-critical_ROB_Stalls_Percent_0_Bucket_4: 168348
Critical_ROB_Stalls_Percent_0_Bucket_5: 11720
Non-critical_ROB_Stalls_Percent_0_Bucket_5: 154292
Critical_ROB_Stalls_Percent_0_Bucket_6: 200252
Non-critical_ROB_Stalls_Percent_0_Bucket_6: 842920
Critical_ROB_Stalls_Percent_1_Bucket_0: 529
Non-critical_ROB_Stalls_Percent_1_Bucket_0: 472019
Critical_ROB_Stalls_Percent_1_Bucket_1: 2763
Non-critical_ROB_Stalls_Percent_1_Bucket_1: 594150
Critical_ROB_Stalls_Percent_1_Bucket_2: 11979
Non-critical_ROB_Stalls_Percent_1_Bucket_2: 464373
Critical_ROB_Stalls_Percent_1_Bucket_3: 17586
Non-critical_ROB_Stalls_Percent_1_Bucket_3: 311852
Critical_ROB_Stalls_Percent_1_Bucket_4: 14464
Non-critical_ROB_Stalls_Percent_1_Bucket_4: 168348
Critical_ROB_Stalls_Percent_1_Bucket_5: 11720
Non-critical_ROB_Stalls_Percent_1_Bucket_5: 154292
Critical_ROB_Stalls_Percent_1_Bucket_6: 200252
Non-critical_ROB_Stalls_Percent_1_Bucket_6: 842920
Critical_ROB_Stalls_Percent_2_Bucket_0: 529
Non-critical_ROB_Stalls_Percent_2_Bucket_0: 472019
Critical_ROB_Stalls_Percent_2_Bucket_1: 2763
Non-critical_ROB_Stalls_Percent_2_Bucket_1: 594150
Critical_ROB_Stalls_Percent_2_Bucket_2: 11979
Non-critical_ROB_Stalls_Percent_2_Bucket_2: 464373
Critical_ROB_Stalls_Percent_2_Bucket_3: 17586
Non-critical_ROB_Stalls_Percent_2_Bucket_3: 311852
Critical_ROB_Stalls_Percent_2_Bucket_4: 14464
Non-critical_ROB_Stalls_Percent_2_Bucket_4: 168348
Critical_ROB_Stalls_Percent_2_Bucket_5: 11720
Non-critical_ROB_Stalls_Percent_2_Bucket_5: 154292
Critical_ROB_Stalls_Percent_2_Bucket_6: 200252
Non-critical_ROB_Stalls_Percent_2_Bucket_6: 842920
Critical_ROB_Stalls_Percent_3_Bucket_0: 529
Non-critical_ROB_Stalls_Percent_3_Bucket_0: 472019
Critical_ROB_Stalls_Percent_3_Bucket_1: 2763
Non-critical_ROB_Stalls_Percent_3_Bucket_1: 594150
Critical_ROB_Stalls_Percent_3_Bucket_2: 11979
Non-critical_ROB_Stalls_Percent_3_Bucket_2: 464373
Critical_ROB_Stalls_Percent_3_Bucket_3: 17586
Non-critical_ROB_Stalls_Percent_3_Bucket_3: 311852
Critical_ROB_Stalls_Percent_3_Bucket_4: 14464
Non-critical_ROB_Stalls_Percent_3_Bucket_4: 168348
Critical_ROB_Stalls_Percent_3_Bucket_5: 11720
Non-critical_ROB_Stalls_Percent_3_Bucket_5: 154292
Critical_ROB_Stalls_Percent_3_Bucket_6: 200252
Non-critical_ROB_Stalls_Percent_3_Bucket_6: 842920
Critical_ROB_Stalls_Percent_4_Bucket_0: 529
Non-critical_ROB_Stalls_Percent_4_Bucket_0: 472019
Critical_ROB_Stalls_Percent_4_Bucket_1: 2763
Non-critical_ROB_Stalls_Percent_4_Bucket_1: 594150
Critical_ROB_Stalls_Percent_4_Bucket_2: 11979
Non-critical_ROB_Stalls_Percent_4_Bucket_2: 464373
Critical_ROB_Stalls_Percent_4_Bucket_3: 17586
Non-critical_ROB_Stalls_Percent_4_Bucket_3: 311852
Critical_ROB_Stalls_Percent_4_Bucket_4: 14464
Non-critical_ROB_Stalls_Percent_4_Bucket_4: 168348
Critical_ROB_Stalls_Percent_4_Bucket_5: 11720
Non-critical_ROB_Stalls_Percent_4_Bucket_5: 154292
Critical_ROB_Stalls_Percent_4_Bucket_6: 200252
Non-critical_ROB_Stalls_Percent_4_Bucket_6: 842920
Critical_ROB_Stalls_Percent_5_Bucket_0: 529
Non-critical_ROB_Stalls_Percent_5_Bucket_0: 472019
Critical_ROB_Stalls_Percent_5_Bucket_1: 2763
Non-critical_ROB_Stalls_Percent_5_Bucket_1: 594150
Critical_ROB_Stalls_Percent_5_Bucket_2: 11979
Non-critical_ROB_Stalls_Percent_5_Bucket_2: 464373
Critical_ROB_Stalls_Percent_5_Bucket_3: 17586
Non-critical_ROB_Stalls_Percent_5_Bucket_3: 311852
Critical_ROB_Stalls_Percent_5_Bucket_4: 14464
Non-critical_ROB_Stalls_Percent_5_Bucket_4: 168348
Critical_ROB_Stalls_Percent_5_Bucket_5: 11720
Non-critical_ROB_Stalls_Percent_5_Bucket_5: 154292
Critical_ROB_Stalls_Percent_5_Bucket_6: 200252
Non-critical_ROB_Stalls_Percent_5_Bucket_6: 842920
Critical_ROB_Stalls_Percent_6_Bucket_0: 529
Non-critical_ROB_Stalls_Percent_6_Bucket_0: 472019
Critical_ROB_Stalls_Percent_6_Bucket_1: 2763
Non-critical_ROB_Stalls_Percent_6_Bucket_1: 594150
Critical_ROB_Stalls_Percent_6_Bucket_2: 11979
Non-critical_ROB_Stalls_Percent_6_Bucket_2: 464373
Critical_ROB_Stalls_Percent_6_Bucket_3: 17586
Non-critical_ROB_Stalls_Percent_6_Bucket_3: 311852
Critical_ROB_Stalls_Percent_6_Bucket_4: 14464
Non-critical_ROB_Stalls_Percent_6_Bucket_4: 168348
Critical_ROB_Stalls_Percent_6_Bucket_5: 11720
Non-critical_ROB_Stalls_Percent_6_Bucket_5: 154292
Critical_ROB_Stalls_Percent_6_Bucket_6: 200252
Non-critical_ROB_Stalls_Percent_6_Bucket_6: 842920
Critical_ROB_Stalls_Percent_7_Bucket_0: 529
Non-critical_ROB_Stalls_Percent_7_Bucket_0: 472019
Critical_ROB_Stalls_Percent_7_Bucket_1: 2763
Non-critical_ROB_Stalls_Percent_7_Bucket_1: 594150
Critical_ROB_Stalls_Percent_7_Bucket_2: 11979
Non-critical_ROB_Stalls_Percent_7_Bucket_2: 464373
Critical_ROB_Stalls_Percent_7_Bucket_3: 17586
Non-critical_ROB_Stalls_Percent_7_Bucket_3: 311852
Critical_ROB_Stalls_Percent_7_Bucket_4: 14464
Non-critical_ROB_Stalls_Percent_7_Bucket_4: 168348
Critical_ROB_Stalls_Percent_7_Bucket_5: 11720
Non-critical_ROB_Stalls_Percent_7_Bucket_5: 154292
Critical_ROB_Stalls_Percent_7_Bucket_6: 200252
Non-critical_ROB_Stalls_Percent_7_Bucket_6: 842920
Critical_ROB_Stalls_Percent_8_Bucket_0: 529
Non-critical_ROB_Stalls_Percent_8_Bucket_0: 472019
Critical_ROB_Stalls_Percent_8_Bucket_1: 2763
Non-critical_ROB_Stalls_Percent_8_Bucket_1: 594150
Critical_ROB_Stalls_Percent_8_Bucket_2: 11979
Non-critical_ROB_Stalls_Percent_8_Bucket_2: 464373
Critical_ROB_Stalls_Percent_8_Bucket_3: 17586
Non-critical_ROB_Stalls_Percent_8_Bucket_3: 311852
Critical_ROB_Stalls_Percent_8_Bucket_4: 14464
Non-critical_ROB_Stalls_Percent_8_Bucket_4: 168348
Critical_ROB_Stalls_Percent_8_Bucket_5: 11720
Non-critical_ROB_Stalls_Percent_8_Bucket_5: 154292
Critical_ROB_Stalls_Percent_8_Bucket_6: 200252
Non-critical_ROB_Stalls_Percent_8_Bucket_6: 842920
Average ROB occupancy Load Stall Begin: 182.367
Average ROB occupancy Load Stall End: 191.339
Min ROB occupancy Load Stall Begin: 1
Max ROB occupancy Load Stall Begin: 352
Min ROB occupancy Load Stall End: 1
Max ROB occupancy Load Stall End: 352
Average ROB occupancy Critical Load Stall Begin: -nan
Average ROB occupancy Critical Load Stall End: -nan
Min ROB occupancy Critical Load Stall Begin: 400
Max ROB occupancy Critical Load Stall Begin: 0
Min ROB occupancy Critical Load Stall End: 400
Max ROB occupancy Critical Load Stall End: 0
 ROB Load Stall Begin Bucket Count 0: 668197
 ROB Load Stall End Bucket Count 0: 472548
 ROB Critical Load Stall Begin Bucket Count 0: 0
 ROB Critical Load Stall End Bucket Count 0: 0
 ROB Load Stall Begin Bucket Count 1: 547733
 ROB Load Stall End Bucket Count 1: 596913
 ROB Critical Load Stall Begin Bucket Count 1: 0
 ROB Critical Load Stall End Bucket Count 1: 0
 ROB Load Stall Begin Bucket Count 2: 430887
 ROB Load Stall End Bucket Count 2: 476352
 ROB Critical Load Stall Begin Bucket Count 2: 0
 ROB Critical Load Stall End Bucket Count 2: 0
 ROB Load Stall Begin Bucket Count 3: 275726
 ROB Load Stall End Bucket Count 3: 329438
 ROB Critical Load Stall Begin Bucket Count 3: 0
 ROB Critical Load Stall End Bucket Count 3: 0
 ROB Load Stall Begin Bucket Count 4: 169822
 ROB Load Stall End Bucket Count 4: 182812
 ROB Critical Load Stall Begin Bucket Count 4: 0
 ROB Critical Load Stall End Bucket Count 4: 0
 ROB Load Stall Begin Bucket Count 5: 163123
 ROB Load Stall End Bucket Count 5: 166012
 ROB Critical Load Stall Begin Bucket Count 5: 0
 ROB Critical Load Stall End Bucket Count 5: 0
 ROB Load Stall Begin Bucket Count 6: 1011759
 ROB Load Stall End Bucket Count 6: 1043172
 ROB Critical Load Stall Begin Bucket Count 6: 0
 ROB Critical Load Stall End Bucket Count 6: 0
PIST Tag Read Accesses: 0
PIST Read Accesses: 0
PIST Tag Write Accesses: 0
PIST Write Accesses: 0
Criticality detector called times: 0
Max global_stall_cycles_count: 0
Threshold Modified: 0 times, factor: 0
ITLB TOTAL     ACCESS:   10079818  HIT:    9644485  MISS:     435333  HIT %:    95.6811  MISS %:    4.31886   MPKI: 8.70666
ITLB LOAD TRANSLATION ACCESS:    8367549  HIT:    8355804  MISS:      11745  HIT %:    99.8596  MISS %:   0.140364   MPKI: 0.2349
ITLB TRANSLATION FROM L1D PREFETCHER ACCESS:    1712269  HIT:    1288681  MISS:     423588  HIT %:    75.2616  MISS %:    24.7384   MPKI: 8.47176
ITLB PREFETCH  REQUESTED:          0  ISSUED:          0  USEFUL:     379467  USELESS:      44116
ITLB USEFUL LOAD PREFETCHES:     379467 PREFETCH ISSUED TO LOWER LEVEL:          0  ACCURACY: inf
ITLB TIMELY PREFETCHES:     379467 LATE PREFETCHES: 343 DROPPED PREFETCHES: 91
ITLB PREFETCHES SAME FILL-ORIGIN LEVEL: 0 DIFFERENT FILL-ORIGIN LEVEL: 0
ITLB AVERAGE MISS LATENCY: 52145.9 cycles
ITLB RQ	ACCESS:   14204601	FORWARD:          0	MERGED:    4077754	TO_CACHE:   10126847

DTLB TOTAL     ACCESS:   10626719  HIT:   10186723  MISS:     439996  HIT %:    95.8595  MISS %:    4.14047   MPKI: 8.79992
DTLB LOAD TRANSLATION ACCESS:   10626719  HIT:   10186723  MISS:     439996  HIT %:    95.8595  MISS %:    4.14047   MPKI: 8.79992
DTLB PREFETCH  REQUESTED:          0  ISSUED:          0  USEFUL:          0  USELESS:          0
DTLB USEFUL LOAD PREFETCHES:          0 PREFETCH ISSUED TO LOWER LEVEL:          0  ACCURACY: -nan
DTLB TIMELY PREFETCHES:          0 LATE PREFETCHES: 0 DROPPED PREFETCHES: 0
DTLB PREFETCHES SAME FILL-ORIGIN LEVEL: 0 DIFFERENT FILL-ORIGIN LEVEL: 0
DTLB AVERAGE MISS LATENCY: 24.7949 cycles
DTLB RQ	ACCESS:   15439376	FORWARD:          0	MERGED:    4735833	TO_CACHE:   10703543

STLB TOTAL     ACCESS:     875329  HIT:     811901  MISS:      63428  HIT %:    92.7538  MISS %:    7.24619   MPKI: 1.26856
STLB LOAD TRANSLATION ACCESS:     451398  HIT:     388974  MISS:      62424  HIT %:     86.171  MISS %:     13.829   MPKI: 1.24848
STLB TRANSLATION FROM L1D PREFETCHER ACCESS:     423931  HIT:     422927  MISS:       1004  HIT %:    99.7632  MISS %:   0.236831   MPKI: 0.02008
STLB PREFETCH  REQUESTED:          0  ISSUED:          0  USEFUL:        750  USELESS:        253
STLB USEFUL LOAD PREFETCHES:        750 PREFETCH ISSUED TO LOWER LEVEL:          0  ACCURACY: inf
STLB TIMELY PREFETCHES:        750 LATE PREFETCHES: 0 DROPPED PREFETCHES: 91
STLB PREFETCHES SAME FILL-ORIGIN LEVEL: 0 DIFFERENT FILL-ORIGIN LEVEL: 0
STLB AVERAGE MISS LATENCY: 114.278 cycles
STLB RQ	ACCESS:     875420	FORWARD:          0	MERGED:          0	TO_CACHE:     875420

STLB Hit, L1D data hit: 0
STLB Hit, L2C data hit: 0
STLB Hit, LLC data hit: 0
STLB Hit, LLC data miss: 0
STLB STLB hints to L2: 0
L1D TOTAL     ACCESS:   13366347  HIT:   11628338  MISS:    1738009  HIT %:    86.9971  MISS %:    13.0029   MPKI: 34.7602
L1D LOAD      ACCESS:    7326619  HIT:    6461339  MISS:     865280  HIT %:    88.1899  MISS %:    11.8101   MPKI: 17.3056
L1D RFO       ACCESS:    6039728  HIT:    5166999  MISS:     872729  HIT %:    85.5502  MISS %:    14.4498   MPKI: 17.4546
L1D PREFETCH  REQUESTED:          0  ISSUED:          0  USEFUL:          0  USELESS:          0
L1D USEFUL LOAD PREFETCHES:          0 PREFETCH ISSUED TO LOWER LEVEL:          0  ACCURACY: -nan
L1D TIMELY PREFETCHES:          0 LATE PREFETCHES: 0 DROPPED PREFETCHES: 0
L1D PREFETCHES SAME FILL-ORIGIN LEVEL: 0 DIFFERENT FILL-ORIGIN LEVEL: 0
L1D AVERAGE MISS LATENCY: 143.489 cycles
L1D RQ	ACCESS:   10784779	FORWARD:          0	MERGED:    3312458	TO_CACHE:    7363246
L1D WQ	ACCESS:    8175288	FORWARD:     109075	MERGED:      99158	TO_CACHE:    8076130

L1D UNIQUE REGIONS ACCESSED: 0
L1D REGIONS CONFLICTS: 0
L1D Cross Page Prefetch Requests: 0
L1D Same Page Prefetch Requests: 0
L1D ROI Sum of L1D PQ occupancy: 0
L1D PREFETCHES PUSHED FROM L2C: 0
L1I TOTAL     ACCESS:   14133882  HIT:   11286103  MISS:    2847779  HIT %:    79.8514  MISS %:    20.1486   MPKI: 56.9556
L1I LOAD      ACCESS:    9748416  HIT:    9726765  MISS:      21651  HIT %:    99.7779  MISS %:   0.222098   MPKI: 0.43302
L1I PREFETCH  ACCESS:    4385466  HIT:    1559338  MISS:    2826128  HIT %:     35.557  MISS %:     64.443   MPKI: 56.5226
L1I PREFETCH  REQUESTED:    4595383  ISSUED:    4586418  USEFUL:    2353245  USELESS:     472882
L1I USEFUL LOAD PREFETCHES:    2353245 PREFETCH ISSUED TO LOWER LEVEL:    2837219  ACCURACY: 82.942
L1I TIMELY PREFETCHES:    2353245 LATE PREFETCHES: 9279 DROPPED PREFETCHES: 155
L1I PREFETCHES SAME FILL-ORIGIN LEVEL: 2837219 DIFFERENT FILL-ORIGIN LEVEL: 0
L1I AVERAGE MISS LATENCY: 269102 cycles
L1I RQ	ACCESS:   14058522	FORWARD:          0	MERGED:    4305118	TO_CACHE:    9753404
L1I PQ	ACCESS:    4586418	FORWARD:          0	MERGED:     135221	TO_CACHE:    4451197

BTB TOTAL     ACCESS:    5420737  HIT:    5179354  MISS:     241383  HIT %:     95.547  MISS %:    4.45296   MPKI: 4.82766
BTB BRANCH_DIRECT_JUMP	ACCESS:     464500  HIT:     462787  MISS:       1713
BTB BRANCH_INDIRECT	ACCESS:      45704  HIT:      45540  MISS:        164
BTB BRANCH_CONDITIONAL	ACCESS:    3156565  HIT:    3151071  MISS:       5494
BTB BRANCH_DIRECT_CALL	ACCESS:     675450  HIT:     671839  MISS:       3611
BTB BRANCH_INDIRECT_CALL	ACCESS:     201532  HIT:     175397  MISS:      26135
BTB BRANCH_RETURN	ACCESS:     876986  HIT:     672720  MISS:     204266
BTB BRANCH_OTHER ACCESS:          0  HIT:          0  MISS:          0

L2C TOTAL     ACCESS:    6212828  HIT:    4354908  MISS:    1857920  HIT %:    70.0954  MISS %:    29.9046   MPKI: 37.1584
L2C LOAD      ACCESS:     877640  HIT:     473321  MISS:     404319  HIT %:    53.9311  MISS %:    46.0689   MPKI: 8.08638
L2C DATA LOAD MPKI: 7.96832
L2C INSTRUCTION LOAD MPKI: 0.11806
L2C RFO       ACCESS:     872727  HIT:      28177  MISS:     844550  HIT %:    3.22862  MISS %:    96.7714   MPKI: 16.891
L2C PREFETCH  ACCESS:    3262979  HIT:    2751288  MISS:     511691  HIT %:    84.3183  MISS %:    15.6817   MPKI: 10.2338
L2C DATA PREFETCH MPKI: 7.33058
L2C INSTRUCTION PREFETCH MPKI: 2.90324
L2C WRITEBACK ACCESS:    1110592  HIT:    1045229  MISS:      65363  HIT %:    94.1146  MISS %:    5.88542   MPKI: 1.30726
L2C LOAD TRANSLATION ACCESS:      87267  HIT:      56280  MISS:      30987  HIT %:    64.4917  MISS %:    35.5083   MPKI: 0.61974
L2C TRANSLATION FROM L1D PREFETCHER ACCESS:       1623  HIT:        613  MISS:       1010  HIT %:    37.7696  MISS %:    62.2304   MPKI: 0.0202
L2C PREFETCH  REQUESTED:     444964  ISSUED:     444964  USEFUL:     295227  USELESS:     218234
L2C USEFUL LOAD PREFETCHES:     295227 PREFETCH ISSUED TO LOWER LEVEL:     513882  ACCURACY: 57.4503
L2C TIMELY PREFETCHES:     295227 LATE PREFETCHES: 2191 DROPPED PREFETCHES: 0
L2C PREFETCHES SAME FILL-ORIGIN LEVEL: 368720 DIFFERENT FILL-ORIGIN LEVEL: 0
L2C AVERAGE MISS LATENCY: 166.29 cycles
L2C RQ	ACCESS:    1839273	FORWARD:          0	MERGED:          0	TO_CACHE:    1839258
L2C WQ	ACCESS:    1110592	FORWARD:         15	MERGED:          0	TO_CACHE:    1110592
L2C PQ	ACCESS:    3280371	FORWARD:          0	MERGED:          0	TO_CACHE:    3280371

L2C Instructions Evicting Data 134449
L2C Translations Evicting Data 28528
L2C Data Evicting Data 1451675
L2C Instructions Evicting Instructions 13702
L2C Translations Evicting Instructions 3016
L2C Data Evicting Instructions 130019
L2C Instructions Evicting Translations 2914
L2C Translations Evicting Translations 453
L2C Data Evicting Translations 27801
L2C Dense regions hint from L2: 0
PSCL5 TOTAL     ACCESS:      63519  HIT:      63519  MISS:          0  HIT %:        100  MISS %:          0   MPKI: 0
PSCL5 LOAD TRANSLATION ACCESS:      62424  HIT:      62424  MISS:          0  HIT %:        100  MISS %:          0   MPKI: 0
PSCL5 TRANSLATION FROM L1D PREFETCHER ACCESS:       1095  HIT:       1095  MISS:          0  HIT %:        100  MISS %:          0   MPKI: 0
PSCL5 PREFETCH  REQUESTED:          0  ISSUED:          0  USEFUL:          0  USELESS:          0
PSCL5 USEFUL LOAD PREFETCHES:          0 PREFETCH ISSUED TO LOWER LEVEL:          0  ACCURACY: -nan
PSCL5 TIMELY PREFETCHES:          0 LATE PREFETCHES: 0 DROPPED PREFETCHES: 0
PSCL5 PREFETCHES SAME FILL-ORIGIN LEVEL: 0 DIFFERENT FILL-ORIGIN LEVEL: 0

PSCL4 TOTAL     ACCESS:      35898  HIT:      35763  MISS:        135  HIT %:    99.6239  MISS %:   0.376066   MPKI: 0.0027
PSCL4 LOAD TRANSLATION ACCESS:      34965  HIT:      34830  MISS:        135  HIT %:    99.6139  MISS %:     0.3861   MPKI: 0.0027
PSCL4 TRANSLATION FROM L1D PREFETCHER ACCESS:        933  HIT:        933  MISS:          0  HIT %:        100  MISS %:          0   MPKI: 0
PSCL4 PREFETCH  REQUESTED:          0  ISSUED:          0  USEFUL:          0  USELESS:          0
PSCL4 USEFUL LOAD PREFETCHES:          0 PREFETCH ISSUED TO LOWER LEVEL:          0  ACCURACY: -nan
PSCL4 TIMELY PREFETCHES:          0 LATE PREFETCHES: 0 DROPPED PREFETCHES: 0
PSCL4 PREFETCHES SAME FILL-ORIGIN LEVEL: 0 DIFFERENT FILL-ORIGIN LEVEL: 0

PSCL3 TOTAL     ACCESS:      63252  HIT:      62760  MISS:        492  HIT %:    99.2222  MISS %:   0.777841   MPKI: 0.00984
PSCL3 LOAD TRANSLATION ACCESS:      62298  HIT:      61806  MISS:        492  HIT %:    99.2102  MISS %:   0.789752   MPKI: 0.00984
PSCL3 TRANSLATION FROM L1D PREFETCHER ACCESS:        954  HIT:        954  MISS:          0  HIT %:        100  MISS %:          0   MPKI: 0
PSCL3 PREFETCH  REQUESTED:          0  ISSUED:          0  USEFUL:          0  USELESS:          0
PSCL3 USEFUL LOAD PREFETCHES:          0 PREFETCH ISSUED TO LOWER LEVEL:          0  ACCURACY: -nan
PSCL3 TIMELY PREFETCHES:          0 LATE PREFETCHES: 0 DROPPED PREFETCHES: 0
PSCL3 PREFETCHES SAME FILL-ORIGIN LEVEL: 0 DIFFERENT FILL-ORIGIN LEVEL: 0

PSCL2 TOTAL     ACCESS:      63449  HIT:      38736  MISS:      24713  HIT %:    61.0506  MISS %:    38.9494   MPKI: 0.49426
PSCL2 LOAD TRANSLATION ACCESS:      62755  HIT:      38042  MISS:      24713  HIT %:    60.6199  MISS %:    39.3801   MPKI: 0.49426
PSCL2 TRANSLATION FROM L1D PREFETCHER ACCESS:        694  HIT:        694  MISS:          0  HIT %:        100  MISS %:          0   MPKI: 0
PSCL2 PREFETCH  REQUESTED:          0  ISSUED:          0  USEFUL:          0  USELESS:          0
PSCL2 USEFUL LOAD PREFETCHES:          0 PREFETCH ISSUED TO LOWER LEVEL:          0  ACCURACY: -nan
PSCL2 TIMELY PREFETCHES:          0 LATE PREFETCHES: 0 DROPPED PREFETCHES: 0
PSCL2 PREFETCHES SAME FILL-ORIGIN LEVEL: 0 DIFFERENT FILL-ORIGIN LEVEL: 0

LLC TOTAL     ACCESS:    2840129  HIT:     989687  MISS:    1850442  HIT %:    34.8466  MISS %:    65.1534   MPKI: 37.0088
LLC LOAD      ACCESS:     402135  HIT:     238049  MISS:     164086  HIT %:    59.1963  MISS %:    40.8037   MPKI: 3.28172
LLC RFO       ACCESS:     844541  HIT:     223250  MISS:     621291  HIT %:    26.4345  MISS %:    73.5655   MPKI: 12.4258
LLC PREFETCH  ACCESS:     513882  HIT:     148723  MISS:     365159  HIT %:    28.9411  MISS %:    71.0589   MPKI: 7.30318
LLC WRITEBACK ACCESS:    1047574  HIT:     365775  MISS:     681799  HIT %:    34.9164  MISS %:    65.0836   MPKI: 13.636
LLC LOAD TRANSLATION ACCESS:      30987  HIT:      13477  MISS:      17510  HIT %:    43.4924  MISS %:    56.5076   MPKI: 0.3502
LLC TRANSLATION FROM L1D PREFETCHER ACCESS:       1010  HIT:        413  MISS:        597  HIT %:    40.8911  MISS %:    59.1089   MPKI: 0.01194
LLC PREFETCH  REQUESTED:          0  ISSUED:          0  USEFUL:        804  USELESS:     363804
LLC USEFUL LOAD PREFETCHES:        804 PREFETCH ISSUED TO LOWER LEVEL:     365159  ACCURACY: 0.220178
LLC TIMELY PREFETCHES:        804 LATE PREFETCHES: 0 DROPPED PREFETCHES: 0
LLC PREFETCHES SAME FILL-ORIGIN LEVEL: 0 DIFFERENT FILL-ORIGIN LEVEL: 0
LLC AVERAGE MISS LATENCY: 136.78 cycles
LLC RQ	ACCESS:    1278676	FORWARD:          0	MERGED:          0	TO_CACHE:    1278674
LLC WQ	ACCESS:    1047575	FORWARD:          2	MERGED:          0	TO_CACHE:    1047575
LLC PQ	ACCESS:     513882	FORWARD:          0	MERGED:          0	TO_CACHE:     513882

LLC Dense regions hint to LLC: 0

RAW hits: 1303822
Loads Generated: 12088598
Loads sent to L1D: 10784779
Stores Generated: 8175295
Stores sent to L1D: 8175288
Major fault: 0 Minor fault: 24906
Allocated PAGES: 24906
I-Shadow cache 408 bytes
Touched + WorthPF tables 6144 bytes 
MMA filter 174 bytes 
FNL filter 272 bytes 
TOTAL PREFETCHER STORAGE SIZE: 25174 bytes
CPU 0 L1I next line prefetcher final stats
[Bingo] PHT Access: 94154
[Bingo] PHT Hit PC+Addr: 15679
[Bingo] PHT Hit PC+Offs: 71565
[Bingo] PHT Miss: 6910
[Bingo] Prefetch PC+Addr: 0
[Bingo] Prefetch PC+Offs: 0
[Bingo] Useful PC+Addr: 0
[Bingo] Useful PC+Offs: 0
[Bingo] Useless PC+Addr: 0
[Bingo] Useless PC+Offs: 0
[Bingo] L1 Prefetch per Region: 0
[Bingo] L2 Prefetch per Region: 6.11249
[Bingo] L3 Prefetch per Region: 0
[Bingo] No Prefetch per Region: 25.8875
[Bingo] Number of Voters Mean: 13.687
[Bingo] Number of Voters SD: 5.99672
PHT read accesses: 1183861
PHT write accesses: 55129
AT read accesses: 385921
AT write accesses: 416095
FT read accesses: 194871
FT write accesses: 94154
PS read accesses: 185401
PS write accesses: 87244
PHT tag read accesses: 2955206
PHT tag write accesses: 70808
AT tag read accesses: 39449324
AT tag write accesses: 441065
FT tag read accesses: 35445899
FT tag write accesses: 229563
PS tag read accesses: 10253433
PS tag write accesses: 272529

DRAM Statistics
 CHANNEL 0
 RQ ROW_BUFFER_HIT:     534697  ROW_BUFFER_MISS:     633929
 DBUS_CONGESTED:        485
 WQ ROW_BUFFER_HIT:     156993  ROW_BUFFER_MISS:     562260  FULL:      12284

 AVG_CONGESTED_CYCLE: 3
 All warmup complete: 2
Channel 0 Bank busy for read cycles: 0
Channel 0 Bank busy for write cycles: 0
Channel 0
Rank 0
0banks busy for read cycles: 32708666
0banks busy for write cycles: 76846
1banks busy for read cycles: 18083658
1banks busy for write cycles: 11204272
2banks busy for read cycles: 7276419
2banks busy for write cycles: 5873993
3banks busy for read cycles: 5244815
3banks busy for write cycles: 3349466
4banks busy for read cycles: 2150518
4banks busy for write cycles: 2099218
5banks busy for read cycles: 829665
5banks busy for write cycles: 1537931
6banks busy for read cycles: 872003
6banks busy for write cycles: 1303060
7banks busy for read cycles: 1382450
7banks busy for write cycles: 1794278
8banks busy for read cycles: 5901534
8banks busy for write cycles: 7499269

CPU 0 Branch Prediction Accuracy: 99.2833% MPKI: 1.20566 Average ROB Occupancy at Mispredict: 134.353
Branch types
NOT_BRANCH: 41588317 83.1766%
BRANCH_DIRECT_JUMP: 464500 0.929%
BRANCH_INDIRECT: 45704 0.091408%
BRANCH_CONDITIONAL: 6147405 12.2948%
BRANCH_DIRECT_CALL: 675450 1.3509%
BRANCH_INDIRECT_CALL: 201532 0.403064%
BRANCH_RETURN: 876986 1.75397%
BRANCH_OTHER: 0 0%

DRAM PAGES: 1048576
Allocated PAGES: 24906
