Initialize SIGNATURE TABLE
ST_SET: 1
ST_WAY: 256
ST_TAG_BIT: 16
ST_TAG_MASK: ffff

Initialize PATTERN TABLE
PT_SET: 512
PT_WAY: 4
SIG_DELTA_BIT: 7
C_SIG_BIT: 4
C_DELTA_BIT: 4

Initialize PREFETCH FILTER
FILTER_SET: 1024

*** ChampSim Multicore Out-of-Order Simulator ***

Warmup Instructions: 50000000
Simulation Instructions: 50000000
Number of CPUs: 1
LLC sets: 2048
LLC ways: 16
Off-chip DRAM Size: 4096 MB Channels: 1 Width: 64-bit Data Rate: 6400 MT/s
CPU 0 runs ../IPC-traces//server_010.champsimtrace.xz
.xz
NUM_OF_IPS_IN_CRITICAL_IP_TRAINING: 64
NUM_OF_CRITICAL_IP_TRAINING_TABLE_WAYS: 2
NUM_OF_CRITICAL_IP_TRAINING_TABLE_SETS: 32
WOBBLY_CRITICAL_IP_CACHE_SETS: 32
WOBBLY_CRITICAL_IP_CACHE_WAYS: 4
BTB has LRU replacement policy
ITLB has LRU replacement policy
DTLB has LRU replacement policy
STLB has LRU replacement policy
CPU 0 L1I next line prefetcher
L1I has LRU replacement policy
L1D has LRU replacement policy
Initialize SRRIP state for L2C
Initialize DRRIP state for LLC
Heartbeat CPU 0 instructions: 10000001 cycles: 2762704 heartbeat IPC: 3.61964 cumulative IPC: 3.61964 (Simulation time: 0 hr 3 min 16 sec) 
Heartbeat CPU 0 instructions: 20000003 cycles: 5517241 heartbeat IPC: 3.63037 cumulative IPC: 3.625 (Simulation time: 0 hr 5 min 45 sec) 
Heartbeat CPU 0 instructions: 30000001 cycles: 8270672 heartbeat IPC: 3.63183 cumulative IPC: 3.62727 (Simulation time: 0 hr 8 min 5 sec) 
Heartbeat CPU 0 instructions: 40000000 cycles: 11025502 heartbeat IPC: 3.62999 cumulative IPC: 3.62795 (Simulation time: 0 hr 10 min 0 sec) 
Heartbeat CPU 0 instructions: 50000003 cycles: 13781583 heartbeat IPC: 3.62834 cumulative IPC: 3.62803 (Simulation time: 0 hr 11 min 55 sec) 

Warmup complete CPU 0 instructions: 50000003 cycles: 13781583 (Simulation time: 0 hr 11 min 55 sec) 

Heartbeat CPU 0 instructions: 60000001 cycles: 27927067 heartbeat IPC: 0.706939 cumulative IPC: 0.706939 (Simulation time: 0 hr 14 min 17 sec) 
Heartbeat CPU 0 instructions: 70000000 cycles: 42094504 heartbeat IPC: 0.705844 cumulative IPC: 0.706391 (Simulation time: 0 hr 16 min 33 sec) 
Heartbeat CPU 0 instructions: 80000003 cycles: 56281847 heartbeat IPC: 0.704854 cumulative IPC: 0.705878 (Simulation time: 0 hr 18 min 51 sec) 
Heartbeat CPU 0 instructions: 90000002 cycles: 70226450 heartbeat IPC: 0.717123 cumulative IPC: 0.708656 (Simulation time: 0 hr 21 min 6 sec) 
Heartbeat CPU 0 instructions: 100000000 cycles: 97861741 heartbeat IPC: 0.361856 cumulative IPC: 0.594671 (Simulation time: 0 hr 24 min 34 sec) 
Finished CPU 0 instructions: 50000001 cycles: 84080179 cumulative IPC: 0.59467 (Simulation time: 0 hr 24 min 34 sec) 

ChampSim completed all CPUs

Region of Interest Statistics

CPU 0 cumulative IPC: 0.59467 instructions: 50000001 cycles: 84080179

CPU 0 Average Load ROB stall cycles: 2.80607e+07
CPU 0 Fraction of times ROB stalled by Loads: 47.3913
CPU 0 Percentage of Load stall cycles in Total stall cycles: 2.87986e+08
Issued all: 34005403
Issued LT all: 28224542
rob_not_full_when_issued_lt_all: 20903876
Issued LT one: 22950961
rob_not_full_when_issued_lt_one: 16139609
 Total stall cycles: 70577995
 Total load stall cycles: 203254577532536
CPU 0 NUM of IPS identified critical: 0
CPU 0 Num of Load IPs stalling ROB: 23880
Threshold modification factor: 0
Max PIST entries: 64
Min PIST entries: 0
Avg PIST entries: 31.58
Trouble in retire width: 0.93443
MaC = Marked as critical.
lt_50_percent_before_Mac: 0
gt_90_percent_before_Mac: 0
gt_75_percent_before_Mac: 0
gt_50_percent_before_Mac: 0
stall_proportion_bin_same_before_after: 0
stall_proportion_bin_lower_before_after: 0
stall_proportion_bin_upper_before_after: 0
average_stall_proportion_before: -nan
average_stall_proportion_after: -nan
Critical IP stalls, total frequency: 0
Non-critical IP stalls, total frequency: 3432733
Total Freq all stalling IPs: 3432733
stat_90_percent_critical_ip_stalls_freq: 3089507
stat_90_percent_non_critical_ip_stalls_freq: 343226
Critical_IP_ROB_Stalls_Bucket_0: 0
Non-critical_IP_ROB_Stalls_Bucket_0: 1201967
Critical_IP_ROB_Stalls_Bucket_1: 0
Non-critical_IP_ROB_Stalls_Bucket_1: 775492
Critical_IP_ROB_Stalls_Bucket_2: 0
Non-critical_IP_ROB_Stalls_Bucket_2: 370213
Critical_IP_ROB_Stalls_Bucket_3: 0
Non-critical_IP_ROB_Stalls_Bucket_3: 224008
Critical_IP_ROB_Stalls_Bucket_4: 0
Non-critical_IP_ROB_Stalls_Bucket_4: 174808
Critical_IP_ROB_Stalls_Bucket_5: 0
Non-critical_IP_ROB_Stalls_Bucket_5: 164268
Critical_IP_ROB_Stalls_Bucket_6: 0
Non-critical_IP_ROB_Stalls_Bucket_6: 521977
0 => IPs accounting for >50 percent of stalls, 1 => 55, 2 => 60, 3 => 65 and so on till 90.
percent50: 50.1434 num IPs:  68
percent55: 55.0516 num IPs: 98
percent60: 60.0674 num IPs: 147
percent65: 65.0342 num IPs: 253
percent70: 70.0097 num IPs: 441
percent75: 75.0139 num IPs: 707
percent80: 80.001 num IPs: 1140
percent85: 85.0003 num IPs: 1990
percent90: 90.0009 num IPs: 3650
Critical_ROB_Stalls_Percent_0_Bucket_0: 391000
Non-critical_ROB_Stalls_Percent_0_Bucket_0: 810967
Critical_ROB_Stalls_Percent_0_Bucket_1: 269176
Non-critical_ROB_Stalls_Percent_0_Bucket_1: 506316
Critical_ROB_Stalls_Percent_0_Bucket_2: 175008
Non-critical_ROB_Stalls_Percent_0_Bucket_2: 195205
Critical_ROB_Stalls_Percent_0_Bucket_3: 143871
Non-critical_ROB_Stalls_Percent_0_Bucket_3: 80137
Critical_ROB_Stalls_Percent_0_Bucket_4: 131555
Non-critical_ROB_Stalls_Percent_0_Bucket_4: 43253
Critical_ROB_Stalls_Percent_0_Bucket_5: 133988
Non-critical_ROB_Stalls_Percent_0_Bucket_5: 30280
Critical_ROB_Stalls_Percent_0_Bucket_6: 476691
Non-critical_ROB_Stalls_Percent_0_Bucket_6: 45286
Critical_ROB_Stalls_Percent_1_Bucket_0: 436866
Non-critical_ROB_Stalls_Percent_1_Bucket_0: 765101
Critical_ROB_Stalls_Percent_1_Bucket_1: 349269
Non-critical_ROB_Stalls_Percent_1_Bucket_1: 426223
Critical_ROB_Stalls_Percent_1_Bucket_2: 201129
Non-critical_ROB_Stalls_Percent_1_Bucket_2: 169084
Critical_ROB_Stalls_Percent_1_Bucket_3: 148695
Non-critical_ROB_Stalls_Percent_1_Bucket_3: 75313
Critical_ROB_Stalls_Percent_1_Bucket_4: 133485
Non-critical_ROB_Stalls_Percent_1_Bucket_4: 41323
Critical_ROB_Stalls_Percent_1_Bucket_5: 140012
Non-critical_ROB_Stalls_Percent_1_Bucket_5: 24256
Critical_ROB_Stalls_Percent_1_Bucket_6: 480319
Non-critical_ROB_Stalls_Percent_1_Bucket_6: 41658
Critical_ROB_Stalls_Percent_2_Bucket_0: 497251
Non-critical_ROB_Stalls_Percent_2_Bucket_0: 704716
Critical_ROB_Stalls_Percent_2_Bucket_1: 412517
Non-critical_ROB_Stalls_Percent_2_Bucket_1: 362975
Critical_ROB_Stalls_Percent_2_Bucket_2: 225705
Non-critical_ROB_Stalls_Percent_2_Bucket_2: 144508
Critical_ROB_Stalls_Percent_2_Bucket_3: 158576
Non-critical_ROB_Stalls_Percent_2_Bucket_3: 65432
Critical_ROB_Stalls_Percent_2_Bucket_4: 137958
Non-critical_ROB_Stalls_Percent_2_Bucket_4: 36850
Critical_ROB_Stalls_Percent_2_Bucket_5: 142043
Non-critical_ROB_Stalls_Percent_2_Bucket_5: 22225
Critical_ROB_Stalls_Percent_2_Bucket_6: 487905
Non-critical_ROB_Stalls_Percent_2_Bucket_6: 34072
Critical_ROB_Stalls_Percent_3_Bucket_0: 566914
Non-critical_ROB_Stalls_Percent_3_Bucket_0: 635053
Critical_ROB_Stalls_Percent_3_Bucket_1: 463973
Non-critical_ROB_Stalls_Percent_3_Bucket_1: 311519
Critical_ROB_Stalls_Percent_3_Bucket_2: 251117
Non-critical_ROB_Stalls_Percent_3_Bucket_2: 119096
Critical_ROB_Stalls_Percent_3_Bucket_3: 167845
Non-critical_ROB_Stalls_Percent_3_Bucket_3: 56163
Critical_ROB_Stalls_Percent_3_Bucket_4: 142733
Non-critical_ROB_Stalls_Percent_3_Bucket_4: 32075
Critical_ROB_Stalls_Percent_3_Bucket_5: 145510
Non-critical_ROB_Stalls_Percent_3_Bucket_5: 18758
Critical_ROB_Stalls_Percent_3_Bucket_6: 494357
Non-critical_ROB_Stalls_Percent_3_Bucket_6: 27620
Critical_ROB_Stalls_Percent_4_Bucket_0: 635475
Non-critical_ROB_Stalls_Percent_4_Bucket_0: 566492
Critical_ROB_Stalls_Percent_4_Bucket_1: 519055
Non-critical_ROB_Stalls_Percent_4_Bucket_1: 256437
Critical_ROB_Stalls_Percent_4_Bucket_2: 274169
Non-critical_ROB_Stalls_Percent_4_Bucket_2: 96044
Critical_ROB_Stalls_Percent_4_Bucket_3: 178048
Non-critical_ROB_Stalls_Percent_4_Bucket_3: 45960
Critical_ROB_Stalls_Percent_4_Bucket_4: 148203
Non-critical_ROB_Stalls_Percent_4_Bucket_4: 26605
Critical_ROB_Stalls_Percent_4_Bucket_5: 149325
Non-critical_ROB_Stalls_Percent_4_Bucket_5: 14943
Critical_ROB_Stalls_Percent_4_Bucket_6: 498971
Non-critical_ROB_Stalls_Percent_4_Bucket_6: 23006
Critical_ROB_Stalls_Percent_5_Bucket_0: 710833
Non-critical_ROB_Stalls_Percent_5_Bucket_0: 491134
Critical_ROB_Stalls_Percent_5_Bucket_1: 582008
Non-critical_ROB_Stalls_Percent_5_Bucket_1: 193484
Critical_ROB_Stalls_Percent_5_Bucket_2: 289907
Non-critical_ROB_Stalls_Percent_5_Bucket_2: 80306
Critical_ROB_Stalls_Percent_5_Bucket_3: 183956
Non-critical_ROB_Stalls_Percent_5_Bucket_3: 40052
Critical_ROB_Stalls_Percent_5_Bucket_4: 152787
Non-critical_ROB_Stalls_Percent_5_Bucket_4: 22021
Critical_ROB_Stalls_Percent_5_Bucket_5: 152770
Non-critical_ROB_Stalls_Percent_5_Bucket_5: 11498
Critical_ROB_Stalls_Percent_5_Bucket_6: 502768
Non-critical_ROB_Stalls_Percent_5_Bucket_6: 19209
Critical_ROB_Stalls_Percent_6_Bucket_0: 807977
Non-critical_ROB_Stalls_Percent_6_Bucket_0: 393990
Critical_ROB_Stalls_Percent_6_Bucket_1: 626898
Non-critical_ROB_Stalls_Percent_6_Bucket_1: 148594
Critical_ROB_Stalls_Percent_6_Bucket_2: 304220
Non-critical_ROB_Stalls_Percent_6_Bucket_2: 65993
Critical_ROB_Stalls_Percent_6_Bucket_3: 190783
Non-critical_ROB_Stalls_Percent_6_Bucket_3: 33225
Critical_ROB_Stalls_Percent_6_Bucket_4: 156345
Non-critical_ROB_Stalls_Percent_6_Bucket_4: 18463
Critical_ROB_Stalls_Percent_6_Bucket_5: 154917
Non-critical_ROB_Stalls_Percent_6_Bucket_5: 9351
Critical_ROB_Stalls_Percent_6_Bucket_6: 505083
Non-critical_ROB_Stalls_Percent_6_Bucket_6: 16894
Critical_ROB_Stalls_Percent_7_Bucket_0: 897509
Non-critical_ROB_Stalls_Percent_7_Bucket_0: 304458
Critical_ROB_Stalls_Percent_7_Bucket_1: 670981
Non-critical_ROB_Stalls_Percent_7_Bucket_1: 104511
Critical_ROB_Stalls_Percent_7_Bucket_2: 322658
Non-critical_ROB_Stalls_Percent_7_Bucket_2: 47555
Critical_ROB_Stalls_Percent_7_Bucket_3: 199361
Non-critical_ROB_Stalls_Percent_7_Bucket_3: 24647
Critical_ROB_Stalls_Percent_7_Bucket_4: 161354
Non-critical_ROB_Stalls_Percent_7_Bucket_4: 13454
Critical_ROB_Stalls_Percent_7_Bucket_5: 157602
Non-critical_ROB_Stalls_Percent_7_Bucket_5: 6666
Critical_ROB_Stalls_Percent_7_Bucket_6: 508377
Non-critical_ROB_Stalls_Percent_7_Bucket_6: 13600
Critical_ROB_Stalls_Percent_8_Bucket_0: 993042
Non-critical_ROB_Stalls_Percent_8_Bucket_0: 208925
Critical_ROB_Stalls_Percent_8_Bucket_1: 710980
Non-critical_ROB_Stalls_Percent_8_Bucket_1: 64512
Critical_ROB_Stalls_Percent_8_Bucket_2: 338810
Non-critical_ROB_Stalls_Percent_8_Bucket_2: 31403
Critical_ROB_Stalls_Percent_8_Bucket_3: 207223
Non-critical_ROB_Stalls_Percent_8_Bucket_3: 16785
Critical_ROB_Stalls_Percent_8_Bucket_4: 166553
Non-critical_ROB_Stalls_Percent_8_Bucket_4: 8255
Critical_ROB_Stalls_Percent_8_Bucket_5: 159890
Non-critical_ROB_Stalls_Percent_8_Bucket_5: 4378
Critical_ROB_Stalls_Percent_8_Bucket_6: 513009
Non-critical_ROB_Stalls_Percent_8_Bucket_6: 8968
Average ROB occupancy Load Stall Begin: 118.549
Average ROB occupancy Load Stall End: 127.585
Min ROB occupancy Load Stall Begin: 1
Max ROB occupancy Load Stall Begin: 352
Min ROB occupancy Load Stall End: 1
Max ROB occupancy Load Stall End: 352
Average ROB occupancy Critical Load Stall Begin: -nan
Average ROB occupancy Critical Load Stall End: -nan
Min ROB occupancy Critical Load Stall Begin: 400
Max ROB occupancy Critical Load Stall Begin: 0
Min ROB occupancy Critical Load Stall End: 400
Max ROB occupancy Critical Load Stall End: 0
 ROB Load Stall Begin Bucket Count 0: 1490330
 ROB Load Stall End Bucket Count 0: 1201967
 ROB Critical Load Stall Begin Bucket Count 0: 0
 ROB Critical Load Stall End Bucket Count 0: 0
 ROB Load Stall Begin Bucket Count 1: 600510
 ROB Load Stall End Bucket Count 1: 775492
 ROB Critical Load Stall Begin Bucket Count 1: 0
 ROB Critical Load Stall End Bucket Count 1: 0
 ROB Load Stall Begin Bucket Count 2: 311522
 ROB Load Stall End Bucket Count 2: 370213
 ROB Critical Load Stall Begin Bucket Count 2: 0
 ROB Critical Load Stall End Bucket Count 2: 0
 ROB Load Stall Begin Bucket Count 3: 197424
 ROB Load Stall End Bucket Count 3: 224008
 ROB Critical Load Stall Begin Bucket Count 3: 0
 ROB Critical Load Stall End Bucket Count 3: 0
 ROB Load Stall Begin Bucket Count 4: 167330
 ROB Load Stall End Bucket Count 4: 174808
 ROB Critical Load Stall Begin Bucket Count 4: 0
 ROB Critical Load Stall End Bucket Count 4: 0
 ROB Load Stall Begin Bucket Count 5: 157118
 ROB Load Stall End Bucket Count 5: 164268
 ROB Critical Load Stall Begin Bucket Count 5: 0
 ROB Critical Load Stall End Bucket Count 5: 0
 ROB Load Stall Begin Bucket Count 6: 508499
 ROB Load Stall End Bucket Count 6: 521977
 ROB Critical Load Stall Begin Bucket Count 6: 0
 ROB Critical Load Stall End Bucket Count 6: 0
PIST Tag Read Accesses: 2266218
PIST Read Accesses: 1133109
PIST Tag Write Accesses: 2266218
PIST Write Accesses: 1133109
Criticality detector called times: 2329868
Max global_stall_cycles_count: 3339993
Threshold Modified: 0 times, factor: 0
Sturdy critical IP cache stats: 
 Unused entries: 0
CIC Tag Read Accesses: 0
CIC Read Accesses: 0
CIC Tag Write Accesses: 0
CIC Write Accesses: 0
Wobbly critical IP cache stats: 
 Unused entries: 106
CIC Tag Read Accesses: 143166842
CIC Read Accesses: 0
CIC Tag Write Accesses: 62775
CIC Write Accesses: 0
ITLB TOTAL     ACCESS:    9521527  HIT:    9304533  MISS:     216994  HIT %:     97.721  MISS %:    2.27898   MPKI: 4.33988
ITLB LOAD TRANSLATION ACCESS:    8394396  HIT:    8333139  MISS:      61257  HIT %:    99.2703  MISS %:   0.729737   MPKI: 1.22514
ITLB TRANSLATION FROM L1D PREFETCHER ACCESS:    1127131  HIT:     971394  MISS:     155737  HIT %:    86.1829  MISS %:    13.8171   MPKI: 3.11474
ITLB PREFETCH  REQUESTED:          0  ISSUED:          0  USEFUL:     126975  USELESS:      28762
ITLB USEFUL LOAD PREFETCHES:     126975 PREFETCH ISSUED TO LOWER LEVEL:          0  ACCURACY: inf
ITLB TIMELY PREFETCHES:     126975 LATE PREFETCHES: 834 DROPPED PREFETCHES: 12347
ITLB PREFETCHES SAME FILL-ORIGIN LEVEL: 0 DIFFERENT FILL-ORIGIN LEVEL: 0
ITLB AVERAGE MISS LATENCY: 178209 cycles
ITLB RQ	ACCESS:   12942200	FORWARD:          0	MERGED:    3380611	TO_CACHE:    9561589

DTLB TOTAL     ACCESS:   10010405  HIT:    8692072  MISS:    1318333  HIT %:    86.8304  MISS %:    13.1696   MPKI: 26.3667
DTLB LOAD TRANSLATION ACCESS:   10010405  HIT:    8692072  MISS:    1318333  HIT %:    86.8304  MISS %:    13.1696   MPKI: 26.3667
DTLB PREFETCH  REQUESTED:          0  ISSUED:          0  USEFUL:          0  USELESS:          0
DTLB USEFUL LOAD PREFETCHES:          0 PREFETCH ISSUED TO LOWER LEVEL:          0  ACCURACY: -nan
DTLB TIMELY PREFETCHES:          0 LATE PREFETCHES: 0 DROPPED PREFETCHES: 0
DTLB PREFETCHES SAME FILL-ORIGIN LEVEL: 0 DIFFERENT FILL-ORIGIN LEVEL: 0
DTLB AVERAGE MISS LATENCY: 11.6463 cycles
DTLB RQ	ACCESS:   13006963	FORWARD:          0	MERGED:    2957483	TO_CACHE:   10049480

STLB TOTAL     ACCESS:    1535327  HIT:    1427446  MISS:     107881  HIT %:    92.9734  MISS %:    7.02658   MPKI: 2.15762
STLB LOAD TRANSLATION ACCESS:    1378756  HIT:    1296634  MISS:      82122  HIT %:    94.0438  MISS %:    5.95624   MPKI: 1.64244
STLB TRANSLATION FROM L1D PREFETCHER ACCESS:     156571  HIT:     130812  MISS:      25759  HIT %:     83.548  MISS %:     16.452   MPKI: 0.51518
STLB PREFETCH  REQUESTED:          0  ISSUED:          0  USEFUL:      15153  USELESS:      10573
STLB USEFUL LOAD PREFETCHES:      15153 PREFETCH ISSUED TO LOWER LEVEL:          0  ACCURACY: inf
STLB TIMELY PREFETCHES:      15153 LATE PREFETCHES: 0 DROPPED PREFETCHES: 12347
STLB PREFETCHES SAME FILL-ORIGIN LEVEL: 0 DIFFERENT FILL-ORIGIN LEVEL: 0
STLB AVERAGE MISS LATENCY: 45.9273 cycles
STLB RQ	ACCESS:    1547673	FORWARD:          0	MERGED:          0	TO_CACHE:    1547673

STLB Hit, L1D data hit: 0
STLB Hit, L2C data hit: 0
STLB Hit, LLC data hit: 0
STLB Hit, LLC data miss: 0
STLB STLB hints to L2: 0
L1D TOTAL     ACCESS:   12858612  HIT:   11198640  MISS:    1659972  HIT %:    87.0906  MISS %:    12.9094   MPKI: 33.1994
L1D LOAD      ACCESS:    8113104  HIT:    6545921  MISS:    1567183  HIT %:    80.6833  MISS %:    19.3167   MPKI: 31.3437
L1D RFO       ACCESS:    4745508  HIT:    4652719  MISS:      92789  HIT %:    98.0447  MISS %:     1.9553   MPKI: 1.85578
L1D PREFETCH  REQUESTED:          0  ISSUED:          0  USEFUL:          0  USELESS:          0
L1D USEFUL LOAD PREFETCHES:          0 PREFETCH ISSUED TO LOWER LEVEL:          0  ACCURACY: -nan
L1D TIMELY PREFETCHES:          0 LATE PREFETCHES: 0 DROPPED PREFETCHES: 0
L1D PREFETCHES SAME FILL-ORIGIN LEVEL: 0 DIFFERENT FILL-ORIGIN LEVEL: 0
L1D AVERAGE MISS LATENCY: 26.6594 cycles
L1D RQ	ACCESS:   11601682	FORWARD:          0	MERGED:    3372393	TO_CACHE:    8148937
L1D WQ	ACCESS:    4965307	FORWARD:      80352	MERGED:     107281	TO_CACHE:    4858026

L1D UNIQUE REGIONS ACCESSED: 0
L1D REGIONS CONFLICTS: 0
L1D Cross Page Prefetch Requests: 0
L1D Same Page Prefetch Requests: 0
L1D ROI Sum of L1D PQ occupancy: 0
L1D PREFETCHES PUSHED FROM L2C: 0
L1I TOTAL     ACCESS:   12784292  HIT:   10962245  MISS:    1822047  HIT %:    85.7478  MISS %:    14.2522   MPKI: 36.4409
L1I LOAD      ACCESS:   10144733  HIT:    9923753  MISS:     220980  HIT %:    97.8217  MISS %:    2.17827   MPKI: 4.4196
L1I PREFETCH  ACCESS:    2639559  HIT:    1038492  MISS:    1601067  HIT %:    39.3434  MISS %:    60.6566   MPKI: 32.0213
L1I PREFETCH  REQUESTED:    2872324  ISSUED:    2863257  USEFUL:    1054048  USELESS:     546987
L1I USEFUL LOAD PREFETCHES:    1054048 PREFETCH ISSUED TO LOWER LEVEL:    1630582  ACCURACY: 64.6424
L1I TIMELY PREFETCHES:    1054048 LATE PREFETCHES: 29517 DROPPED PREFETCHES: 40349
L1I PREFETCHES SAME FILL-ORIGIN LEVEL: 1630582 DIFFERENT FILL-ORIGIN LEVEL: 0
L1I AVERAGE MISS LATENCY: 731741 cycles
L1I RQ	ACCESS:   14602820	FORWARD:          0	MERGED:    4434348	TO_CACHE:   10168472
L1I PQ	ACCESS:    2863257	FORWARD:          0	MERGED:      89529	TO_CACHE:    2773728

BTB TOTAL     ACCESS:    5599982  HIT:    4872063  MISS:     727919  HIT %:    87.0014  MISS %:    12.9986   MPKI: 14.5584
BTB BRANCH_DIRECT_JUMP	ACCESS:     449946  HIT:     393873  MISS:      56073
BTB BRANCH_INDIRECT	ACCESS:     140210  HIT:     110632  MISS:      29578
BTB BRANCH_CONDITIONAL	ACCESS:    3238717  HIT:    3009562  MISS:     229155
BTB BRANCH_DIRECT_CALL	ACCESS:     701578  HIT:     595974  MISS:     105604
BTB BRANCH_INDIRECT_CALL	ACCESS:     168971  HIT:     157981  MISS:      10990
BTB BRANCH_RETURN	ACCESS:     900560  HIT:     604041  MISS:     296519
BTB BRANCH_OTHER ACCESS:          0  HIT:          0  MISS:          0

L2C TOTAL     ACCESS:    4178994  HIT:    3118765  MISS:    1060229  HIT %:    74.6296  MISS %:    25.3704   MPKI: 21.2046
L2C LOAD      ACCESS:    1758624  HIT:    1391940  MISS:     366684  HIT %:    79.1494  MISS %:    20.8506   MPKI: 7.33368
L2C DATA LOAD MPKI: 5.7183
L2C INSTRUCTION LOAD MPKI: 1.61538
L2C RFO       ACCESS:      92789  HIT:      46857  MISS:      45932  HIT %:    50.4984  MISS %:    49.5016   MPKI: 0.91864
L2C PREFETCH  ACCESS:    1930111  HIT:    1358894  MISS:     571217  HIT %:     70.405  MISS %:     29.595   MPKI: 11.4243
L2C DATA PREFETCH MPKI: 0.03452
L2C INSTRUCTION PREFETCH MPKI: 11.3898
L2C WRITEBACK ACCESS:     239250  HIT:     218551  MISS:      20699  HIT %:    91.3484  MISS %:    8.65162   MPKI: 0.41398
L2C LOAD TRANSLATION ACCESS:     108456  HIT:      62582  MISS:      45874  HIT %:    57.7027  MISS %:    42.2973   MPKI: 0.91748
L2C TRANSLATION FROM L1D PREFETCHER ACCESS:      49764  HIT:      39941  MISS:       9823  HIT %:    80.2608  MISS %:    19.7392   MPKI: 0.19646
L2C PREFETCH  REQUESTED:    1218873  ISSUED:    1218873  USEFUL:      17002  USELESS:     565221
L2C USEFUL LOAD PREFETCHES:      17002 PREFETCH ISSUED TO LOWER LEVEL:     965905  ACCURACY: 1.76021
L2C TIMELY PREFETCHES:      17002 LATE PREFETCHES: 63 DROPPED PREFETCHES: 0
L2C PREFETCHES SAME FILL-ORIGIN LEVEL: 1915 DIFFERENT FILL-ORIGIN LEVEL: 394625
L2C AVERAGE MISS LATENCY: 38.9189 cycles
L2C RQ	ACCESS:    2009655	FORWARD:          0	MERGED:          0	TO_CACHE:    2009633
L2C WQ	ACCESS:     239250	FORWARD:         22	MERGED:          0	TO_CACHE:     239250
L2C PQ	ACCESS:    2849455	FORWARD:          0	MERGED:     523839	TO_CACHE:    2325616

L2C Instructions Evicting Data 217440
L2C Translations Evicting Data 18697
L2C Data Evicting Data 109816
L2C Instructions Evicting Instructions 398918
L2C Translations Evicting Instructions 34114
L2C Data Evicting Instructions 205762
L2C Instructions Evicting Translations 33902
L2C Translations Evicting Translations 2886
L2C Data Evicting Translations 17995
L2C Dense regions hint from L2: 0
PSCL5 TOTAL     ACCESS:     120227  HIT:     120227  MISS:          0  HIT %:        100  MISS %:          0   MPKI: 0
PSCL5 LOAD TRANSLATION ACCESS:      82121  HIT:      82121  MISS:          0  HIT %:        100  MISS %:          0   MPKI: 0
PSCL5 TRANSLATION FROM L1D PREFETCHER ACCESS:      38106  HIT:      38106  MISS:          0  HIT %:        100  MISS %:          0   MPKI: 0
PSCL5 PREFETCH  REQUESTED:          0  ISSUED:          0  USEFUL:          0  USELESS:          0
PSCL5 USEFUL LOAD PREFETCHES:          0 PREFETCH ISSUED TO LOWER LEVEL:          0  ACCURACY: -nan
PSCL5 TIMELY PREFETCHES:          0 LATE PREFETCHES: 0 DROPPED PREFETCHES: 0
PSCL5 PREFETCHES SAME FILL-ORIGIN LEVEL: 0 DIFFERENT FILL-ORIGIN LEVEL: 0

PSCL4 TOTAL     ACCESS:     107998  HIT:     107690  MISS:        308  HIT %:    99.7148  MISS %:    0.28519   MPKI: 0.00616
PSCL4 LOAD TRANSLATION ACCESS:      76720  HIT:      76412  MISS:        308  HIT %:    99.5985  MISS %:    0.40146   MPKI: 0.00616
PSCL4 TRANSLATION FROM L1D PREFETCHER ACCESS:      31278  HIT:      31278  MISS:          0  HIT %:        100  MISS %:          0   MPKI: 0
PSCL4 PREFETCH  REQUESTED:          0  ISSUED:          0  USEFUL:          0  USELESS:          0
PSCL4 USEFUL LOAD PREFETCHES:          0 PREFETCH ISSUED TO LOWER LEVEL:          0  ACCURACY: -nan
PSCL4 TIMELY PREFETCHES:          0 LATE PREFETCHES: 0 DROPPED PREFETCHES: 0
PSCL4 PREFETCHES SAME FILL-ORIGIN LEVEL: 0 DIFFERENT FILL-ORIGIN LEVEL: 0

PSCL3 TOTAL     ACCESS:     118847  HIT:     117992  MISS:        855  HIT %:    99.2806  MISS %:   0.719412   MPKI: 0.0171
PSCL3 LOAD TRANSLATION ACCESS:      81752  HIT:      80897  MISS:        855  HIT %:    98.9542  MISS %:    1.04585   MPKI: 0.0171
PSCL3 TRANSLATION FROM L1D PREFETCHER ACCESS:      37095  HIT:      37095  MISS:          0  HIT %:        100  MISS %:          0   MPKI: 0
PSCL3 PREFETCH  REQUESTED:          0  ISSUED:          0  USEFUL:          0  USELESS:          0
PSCL3 USEFUL LOAD PREFETCHES:          0 PREFETCH ISSUED TO LOWER LEVEL:          0  ACCURACY: -nan
PSCL3 TIMELY PREFETCHES:          0 LATE PREFETCHES: 0 DROPPED PREFETCHES: 0
PSCL3 PREFETCHES SAME FILL-ORIGIN LEVEL: 0 DIFFERENT FILL-ORIGIN LEVEL: 0

PSCL2 TOTAL     ACCESS:     112568  HIT:      83810  MISS:      28758  HIT %:    74.4528  MISS %:    25.5472   MPKI: 0.57516
PSCL2 LOAD TRANSLATION ACCESS:      85484  HIT:      56726  MISS:      28758  HIT %:    66.3586  MISS %:    33.6414   MPKI: 0.57516
PSCL2 TRANSLATION FROM L1D PREFETCHER ACCESS:      27084  HIT:      27084  MISS:          0  HIT %:        100  MISS %:          0   MPKI: 0
PSCL2 PREFETCH  REQUESTED:          0  ISSUED:          0  USEFUL:          0  USELESS:          0
PSCL2 USEFUL LOAD PREFETCHES:          0 PREFETCH ISSUED TO LOWER LEVEL:          0  ACCURACY: -nan
PSCL2 TIMELY PREFETCHES:          0 LATE PREFETCHES: 0 DROPPED PREFETCHES: 0
PSCL2 PREFETCHES SAME FILL-ORIGIN LEVEL: 0 DIFFERENT FILL-ORIGIN LEVEL: 0

LLC TOTAL     ACCESS:    1549887  HIT:    1483101  MISS:      66786  HIT %:    95.6909  MISS %:    4.30909   MPKI: 1.33572
LLC LOAD      ACCESS:     366617  HIT:     318845  MISS:      47772  HIT %:    86.9695  MISS %:    13.0305   MPKI: 0.95544
LLC RFO       ACCESS:      45932  HIT:      35012  MISS:      10920  HIT %:    76.2257  MISS %:    23.7743   MPKI: 0.2184
LLC PREFETCH  ACCESS:     960774  HIT:     954255  MISS:       6519  HIT %:    99.3215  MISS %:   0.678515   MPKI: 0.13038
LLC WRITEBACK ACCESS:     120867  HIT:     120339  MISS:        528  HIT %:    99.5632  MISS %:   0.436844   MPKI: 0.01056
LLC LOAD TRANSLATION ACCESS:      45874  HIT:      44861  MISS:       1013  HIT %:    97.7918  MISS %:    2.20822   MPKI: 0.02026
LLC TRANSLATION FROM L1D PREFETCHER ACCESS:       9823  HIT:       9789  MISS:         34  HIT %:    99.6539  MISS %:   0.346126   MPKI: 0.00068
LLC PREFETCH  REQUESTED:          0  ISSUED:          0  USEFUL:        567  USELESS:       5612
LLC USEFUL LOAD PREFETCHES:        567 PREFETCH ISSUED TO LOWER LEVEL:       6546  ACCURACY: 8.66178
LLC TIMELY PREFETCHES:        567 LATE PREFETCHES: 27 DROPPED PREFETCHES: 0
LLC PREFETCHES SAME FILL-ORIGIN LEVEL: 2813 DIFFERENT FILL-ORIGIN LEVEL: 0
LLC AVERAGE MISS LATENCY: 159.558 cycles
LLC RQ	ACCESS:     468250	FORWARD:          0	MERGED:          0	TO_CACHE:     468246
LLC WQ	ACCESS:     120867	FORWARD:          4	MERGED:          0	TO_CACHE:     120867
LLC PQ	ACCESS:     965905	FORWARD:          0	MERGED:       4880	TO_CACHE:     961025

LLC Dense regions hint to LLC: 0

RAW hits: 1006535
Loads Generated: 12608216
Loads sent to L1D: 11601682
Stores Generated: 4965302
Stores sent to L1D: 4965307
Major fault: 0 Minor fault: 5909
Allocated PAGES: 5909
I-Shadow cache 408 bytes
Touched + WorthPF tables 6144 bytes 
MMA filter 174 bytes 
FNL filter 272 bytes 
TOTAL PREFETCHER STORAGE SIZE: 25174 bytes
CPU 0 L1I next line prefetcher final stats
 All Calls: 5690711
 Critical Calls: 1862742
------------------
Depth Distribution
------------------
depth 0: 0
depth 1: 1033827
depth 2: 571831
depth 3: 220183
depth 4: 34076
depth 5: 11254
depth 6: 8987
depth 7: 3
depth 8: 0
depth 9: 0
depth 10: 0
depth 11: 0
depth 12: 0
depth 13: 0
depth 14: 0
depth 15: 0
depth 16: 0
depth 17: 0
depth 18: 0
depth 19: 0
depth 20: 0
depth 21: 0
depth 22: 0
depth 23: 0
depth 24: 0
depth 25: 0
depth 26: 0
depth 27: 0
depth 28: 0
depth 29: 0
Total: 1880161
-----------------------------
-----------------------------
	Captured at Filter
-----------------------------
depth 0: 0
depth 1: 923894
depth 2: 839583
depth 3: 755760
depth 4: 661166
depth 5: 555722
depth 6: 409986
depth 7: 129120
depth 8: 23
depth 9: 0
depth 10: 0
depth 11: 0
depth 12: 0
depth 13: 0
depth 14: 0
depth 15: 0
depth 16: 0
depth 17: 0
depth 18: 0
depth 19: 0
depth 20: 0
depth 21: 0
depth 22: 0
depth 23: 0
depth 24: 0
depth 25: 0
depth 26: 0
depth 27: 0
depth 28: 0
depth 29: 0
-----------------------------
-----------------------------
		Lost at Page
-----------------------------
depth 0: 0
depth 1: 23580
depth 2: 13385
depth 3: 1838
depth 4: 1665
depth 5: 894
depth 6: 84
depth 7: 0
depth 8: 0
depth 9: 0
depth 10: 0
depth 11: 0
depth 12: 0
depth 13: 0
depth 14: 0
depth 15: 0
depth 16: 0
depth 17: 0
depth 18: 0
depth 19: 0
depth 20: 0
depth 21: 0
depth 22: 0
depth 23: 0
depth 24: 0
depth 25: 0
depth 26: 0
depth 27: 0
depth 28: 0
depth 29: 0
-----------------------------
-----------------------------
	Lost due to PQ Size
-----------------------------
15
-----------------------------
ST read accesses: 1368377
ST write accesses: 36589
PT read accesses: 35753722
PT write accesses: 1893098
FILTER read accesses: 7948373
FILTER write accesses: 1142217
GHR read accesses: 433670
GHR write accesses: 26300
GHR counter read accesses: 29748336
GHR counter write accesses: 1485654
ST tag read accesses: 563737820
ST tag write accesses: 37550856

DRAM Statistics
 CHANNEL 0
 RQ ROW_BUFFER_HIT:       9534  ROW_BUFFER_MISS:      56724
 DBUS_CONGESTED:         24
 WQ ROW_BUFFER_HIT:       9615  ROW_BUFFER_MISS:      40764  FULL:          0

 AVG_CONGESTED_CYCLE: 4
 All warmup complete: 2
Channel 0 Bank busy for read cycles: 0
Channel 0 Bank busy for write cycles: 0
Channel 0
Rank 0
0banks busy for read cycles: 72289033
0banks busy for write cycles: 23389
1banks busy for read cycles: 5258549
1banks busy for write cycles: 3181179
2banks busy for read cycles: 1108522
2banks busy for write cycles: 969195
3banks busy for read cycles: 223203
3banks busy for write cycles: 311791
4banks busy for read cycles: 78537
4banks busy for write cycles: 150138
5banks busy for read cycles: 36944
5banks busy for write cycles: 100622
6banks busy for read cycles: 23659
6banks busy for write cycles: 74886
7banks busy for read cycles: 15359
7banks busy for write cycles: 80556
8banks busy for read cycles: 11788
8banks busy for write cycles: 142830

CPU 0 Branch Prediction Accuracy: 99.5528% MPKI: 0.89798 Average ROB Occupancy at Mispredict: 63.5876
Branch types
NOT_BRANCH: 39958758 79.9175%
BRANCH_DIRECT_JUMP: 449946 0.899892%
BRANCH_INDIRECT: 140210 0.28042%
BRANCH_CONDITIONAL: 7679656 15.3593%
BRANCH_DIRECT_CALL: 701578 1.40316%
BRANCH_INDIRECT_CALL: 168971 0.337942%
BRANCH_RETURN: 900560 1.80112%
BRANCH_OTHER: 0 0%

DRAM PAGES: 1048576
Allocated PAGES: 5909
