
*** ChampSim Multicore Out-of-Order Simulator ***

Warmup Instructions: 50000000
Simulation Instructions: 50000000
Number of CPUs: 1
LLC sets: 2048
LLC ways: 16
Off-chip DRAM Size: 4096 MB Channels: 1 Width: 64-bit Data Rate: 6400 MT/s
CPU 0 runs ../IPC-traces//server_026.champsimtrace.xz
.xz
NUM_OF_IPS_IN_CRITICAL_IP_TRAINING: 64
NUM_OF_CRITICAL_IP_TRAINING_TABLE_WAYS: 2
NUM_OF_CRITICAL_IP_TRAINING_TABLE_SETS: 32
WOBBLY_CRITICAL_IP_CACHE_SETS: 32
WOBBLY_CRITICAL_IP_CACHE_WAYS: 4
BTB has LRU replacement policy
ITLB has LRU replacement policy
DTLB has LRU replacement policy
STLB has LRU replacement policy
CPU 0 L1I next line prefetcher
L1I has LRU replacement policy
IP Table Entries: 256
L1D has LRU replacement policy
Initialize SRRIP state for L2C
Initialize DRRIP state for LLC
Heartbeat CPU 0 instructions: 10000000 cycles: 2881928 heartbeat IPC: 3.4699 cumulative IPC: 3.4699 (Simulation time: 0 hr 6 min 27 sec) 
Heartbeat CPU 0 instructions: 20000002 cycles: 5762744 heartbeat IPC: 3.47124 cumulative IPC: 3.47057 (Simulation time: 0 hr 13 min 19 sec) 
Heartbeat CPU 0 instructions: 30000003 cycles: 8640762 heartbeat IPC: 3.47461 cumulative IPC: 3.47192 (Simulation time: 0 hr 20 min 17 sec) 
Heartbeat CPU 0 instructions: 40000001 cycles: 11521343 heartbeat IPC: 3.47152 cumulative IPC: 3.47182 (Simulation time: 0 hr 26 min 55 sec) 
Heartbeat CPU 0 instructions: 50000000 cycles: 14399655 heartbeat IPC: 3.47426 cumulative IPC: 3.47231 (Simulation time: 0 hr 33 min 4 sec) 

Warmup complete CPU 0 instructions: 50000004 cycles: 14399656 (Simulation time: 0 hr 33 min 4 sec) 

% increase in all ip prefetch 429.857
% increase in all ip prefetch 3.21478
*** Reached end of trace for Core: 0 Repeating trace: ../IPC-traces//server_026.champsimtrace.xz
Heartbeat CPU 0 instructions: 60000000 cycles: 30854591 heartbeat IPC: 0.60772 cumulative IPC: 0.60772 (Simulation time: 0 hr 38 min 49 sec) 
Heartbeat CPU 0 instructions: 70000001 cycles: 47156112 heartbeat IPC: 0.61344 cumulative IPC: 0.610567 (Simulation time: 0 hr 44 min 5 sec) 
Heartbeat CPU 0 instructions: 80000003 cycles: 63542255 heartbeat IPC: 0.610272 cumulative IPC: 0.610468 (Simulation time: 0 hr 48 min 46 sec) 
Heartbeat CPU 0 instructions: 90000002 cycles: 79829415 heartbeat IPC: 0.613981 cumulative IPC: 0.611343 (Simulation time: 0 hr 52 min 12 sec) 
Heartbeat CPU 0 instructions: 100000000 cycles: 96133739 heartbeat IPC: 0.613334 cumulative IPC: 0.61174 (Simulation time: 0 hr 55 min 45 sec) 
Finished CPU 0 instructions: 50000000 cycles: 81734084 cumulative IPC: 0.61174 (Simulation time: 0 hr 55 min 45 sec) 

ChampSim completed all CPUs

Region of Interest Statistics

CPU 0 cumulative IPC: 0.61174 instructions: 50000000 cycles: 81734084

CPU 0 Average Load ROB stall cycles: 1.98598e+07
CPU 0 Fraction of times ROB stalled by Loads: 35.8882
CPU 0 Percentage of Load stall cycles in Total stall cycles: 2.84883e+08
Issued all: 28234806
Issued LT all: 22446184
rob_not_full_when_issued_lt_all: 22070174
Issued LT one: 17409770
rob_not_full_when_issued_lt_one: 17082865
 Total stall cycles: 68375794
 Total load stall cycles: 194790882754106
CPU 0 NUM of IPS identified critical: 0
CPU 0 Num of Load IPs stalling ROB: 11885
Threshold modification factor: -1
Max PIST entries: 64
Min PIST entries: 0
Avg PIST entries: 32
Trouble in retire width: 0.90959
MaC = Marked as critical.
lt_50_percent_before_Mac: 0
gt_90_percent_before_Mac: 0
gt_75_percent_before_Mac: 0
gt_50_percent_before_Mac: 0
stall_proportion_bin_same_before_after: 0
stall_proportion_bin_lower_before_after: 0
stall_proportion_bin_upper_before_after: 0
average_stall_proportion_before: -nan
average_stall_proportion_after: -nan
Critical IP stalls, total frequency: 0
Non-critical IP stalls, total frequency: 3520026
Total Freq all stalling IPs: 3520026
stat_90_percent_critical_ip_stalls_freq: 3168114
stat_90_percent_non_critical_ip_stalls_freq: 351912
Critical_IP_ROB_Stalls_Bucket_0: 0
Non-critical_IP_ROB_Stalls_Bucket_0: 2501650
Critical_IP_ROB_Stalls_Bucket_1: 0
Non-critical_IP_ROB_Stalls_Bucket_1: 689003
Critical_IP_ROB_Stalls_Bucket_2: 0
Non-critical_IP_ROB_Stalls_Bucket_2: 224688
Critical_IP_ROB_Stalls_Bucket_3: 0
Non-critical_IP_ROB_Stalls_Bucket_3: 55689
Critical_IP_ROB_Stalls_Bucket_4: 0
Non-critical_IP_ROB_Stalls_Bucket_4: 19647
Critical_IP_ROB_Stalls_Bucket_5: 0
Non-critical_IP_ROB_Stalls_Bucket_5: 10355
Critical_IP_ROB_Stalls_Bucket_6: 0
Non-critical_IP_ROB_Stalls_Bucket_6: 18994
0 => IPs accounting for >50 percent of stalls, 1 => 55, 2 => 60, 3 => 65 and so on till 90.
percent50: 50.0003 num IPs:  549
percent55: 55.0128 num IPs: 769
percent60: 60.014 num IPs: 1012
percent65: 65.0124 num IPs: 1259
percent70: 70.0116 num IPs: 1541
percent75: 75.0016 num IPs: 1899
percent80: 80.0065 num IPs: 2280
percent85: 85.0034 num IPs: 2800
percent90: 90.0002 num IPs: 3504
Critical_ROB_Stalls_Percent_0_Bucket_0: 1022574
Non-critical_ROB_Stalls_Percent_0_Bucket_0: 1479076
Critical_ROB_Stalls_Percent_0_Bucket_1: 465832
Non-critical_ROB_Stalls_Percent_0_Bucket_1: 223171
Critical_ROB_Stalls_Percent_0_Bucket_2: 177862
Non-critical_ROB_Stalls_Percent_0_Bucket_2: 46826
Critical_ROB_Stalls_Percent_0_Bucket_3: 49962
Non-critical_ROB_Stalls_Percent_0_Bucket_3: 5727
Critical_ROB_Stalls_Percent_0_Bucket_4: 17423
Non-critical_ROB_Stalls_Percent_0_Bucket_4: 2224
Critical_ROB_Stalls_Percent_0_Bucket_5: 9295
Non-critical_ROB_Stalls_Percent_0_Bucket_5: 1060
Critical_ROB_Stalls_Percent_0_Bucket_6: 17074
Non-critical_ROB_Stalls_Percent_0_Bucket_6: 1920
Critical_ROB_Stalls_Percent_1_Bucket_0: 1156283
Non-critical_ROB_Stalls_Percent_1_Bucket_0: 1345367
Critical_ROB_Stalls_Percent_1_Bucket_1: 497885
Non-critical_ROB_Stalls_Percent_1_Bucket_1: 191118
Critical_ROB_Stalls_Percent_1_Bucket_2: 186637
Non-critical_ROB_Stalls_Percent_1_Bucket_2: 38051
Critical_ROB_Stalls_Percent_1_Bucket_3: 51066
Non-critical_ROB_Stalls_Percent_1_Bucket_3: 4623
Critical_ROB_Stalls_Percent_1_Bucket_4: 18029
Non-critical_ROB_Stalls_Percent_1_Bucket_4: 1618
Critical_ROB_Stalls_Percent_1_Bucket_5: 9382
Non-critical_ROB_Stalls_Percent_1_Bucket_5: 973
Critical_ROB_Stalls_Percent_1_Bucket_6: 17185
Non-critical_ROB_Stalls_Percent_1_Bucket_6: 1809
Critical_ROB_Stalls_Percent_2_Bucket_0: 1282567
Non-critical_ROB_Stalls_Percent_2_Bucket_0: 1219083
Critical_ROB_Stalls_Percent_2_Bucket_1: 538950
Non-critical_ROB_Stalls_Percent_2_Bucket_1: 150053
Critical_ROB_Stalls_Percent_2_Bucket_2: 194749
Non-critical_ROB_Stalls_Percent_2_Bucket_2: 29939
Critical_ROB_Stalls_Percent_2_Bucket_3: 51644
Non-critical_ROB_Stalls_Percent_2_Bucket_3: 4045
Critical_ROB_Stalls_Percent_2_Bucket_4: 18032
Non-critical_ROB_Stalls_Percent_2_Bucket_4: 1615
Critical_ROB_Stalls_Percent_2_Bucket_5: 9382
Non-critical_ROB_Stalls_Percent_2_Bucket_5: 973
Critical_ROB_Stalls_Percent_2_Bucket_6: 17185
Non-critical_ROB_Stalls_Percent_2_Bucket_6: 1809
Critical_ROB_Stalls_Percent_3_Bucket_0: 1428489
Non-critical_ROB_Stalls_Percent_3_Bucket_0: 1073161
Critical_ROB_Stalls_Percent_3_Bucket_1: 564584
Non-critical_ROB_Stalls_Percent_3_Bucket_1: 124419
Critical_ROB_Stalls_Percent_3_Bucket_2: 198754
Non-critical_ROB_Stalls_Percent_3_Bucket_2: 25934
Critical_ROB_Stalls_Percent_3_Bucket_3: 51902
Non-critical_ROB_Stalls_Percent_3_Bucket_3: 3787
Critical_ROB_Stalls_Percent_3_Bucket_4: 18161
Non-critical_ROB_Stalls_Percent_3_Bucket_4: 1486
Critical_ROB_Stalls_Percent_3_Bucket_5: 9382
Non-critical_ROB_Stalls_Percent_3_Bucket_5: 973
Critical_ROB_Stalls_Percent_3_Bucket_6: 17185
Non-critical_ROB_Stalls_Percent_3_Bucket_6: 1809
Critical_ROB_Stalls_Percent_4_Bucket_0: 1573477
Non-critical_ROB_Stalls_Percent_4_Bucket_0: 928173
Critical_ROB_Stalls_Percent_4_Bucket_1: 588732
Non-critical_ROB_Stalls_Percent_4_Bucket_1: 100271
Critical_ROB_Stalls_Percent_4_Bucket_2: 204111
Non-critical_ROB_Stalls_Percent_4_Bucket_2: 20577
Critical_ROB_Stalls_Percent_4_Bucket_3: 52532
Non-critical_ROB_Stalls_Percent_4_Bucket_3: 3157
Critical_ROB_Stalls_Percent_4_Bucket_4: 18410
Non-critical_ROB_Stalls_Percent_4_Bucket_4: 1237
Critical_ROB_Stalls_Percent_4_Bucket_5: 9438
Non-critical_ROB_Stalls_Percent_4_Bucket_5: 917
Critical_ROB_Stalls_Percent_4_Bucket_6: 17727
Non-critical_ROB_Stalls_Percent_4_Bucket_6: 1267
Critical_ROB_Stalls_Percent_5_Bucket_0: 1714701
Non-critical_ROB_Stalls_Percent_5_Bucket_0: 786949
Critical_ROB_Stalls_Percent_5_Bucket_1: 615056
Non-critical_ROB_Stalls_Percent_5_Bucket_1: 73947
Critical_ROB_Stalls_Percent_5_Bucket_2: 211548
Non-critical_ROB_Stalls_Percent_5_Bucket_2: 13140
Critical_ROB_Stalls_Percent_5_Bucket_3: 53017
Non-critical_ROB_Stalls_Percent_5_Bucket_3: 2672
Critical_ROB_Stalls_Percent_5_Bucket_4: 18530
Non-critical_ROB_Stalls_Percent_5_Bucket_4: 1117
Critical_ROB_Stalls_Percent_5_Bucket_5: 9474
Non-critical_ROB_Stalls_Percent_5_Bucket_5: 881
Critical_ROB_Stalls_Percent_5_Bucket_6: 17766
Non-critical_ROB_Stalls_Percent_5_Bucket_6: 1228
Critical_ROB_Stalls_Percent_6_Bucket_0: 1871144
Non-critical_ROB_Stalls_Percent_6_Bucket_0: 630506
Critical_ROB_Stalls_Percent_6_Bucket_1: 631389
Non-critical_ROB_Stalls_Percent_6_Bucket_1: 57614
Critical_ROB_Stalls_Percent_6_Bucket_2: 214360
Non-critical_ROB_Stalls_Percent_6_Bucket_2: 10328
Critical_ROB_Stalls_Percent_6_Bucket_3: 53312
Non-critical_ROB_Stalls_Percent_6_Bucket_3: 2377
Critical_ROB_Stalls_Percent_6_Bucket_4: 18560
Non-critical_ROB_Stalls_Percent_6_Bucket_4: 1087
Critical_ROB_Stalls_Percent_6_Bucket_5: 9684
Non-critical_ROB_Stalls_Percent_6_Bucket_5: 671
Critical_ROB_Stalls_Percent_6_Bucket_6: 17818
Non-critical_ROB_Stalls_Percent_6_Bucket_6: 1176
Critical_ROB_Stalls_Percent_7_Bucket_0: 2024913
Non-critical_ROB_Stalls_Percent_7_Bucket_0: 476737
Critical_ROB_Stalls_Percent_7_Bucket_1: 649666
Non-critical_ROB_Stalls_Percent_7_Bucket_1: 39337
Critical_ROB_Stalls_Percent_7_Bucket_2: 217220
Non-critical_ROB_Stalls_Percent_7_Bucket_2: 7468
Critical_ROB_Stalls_Percent_7_Bucket_3: 53919
Non-critical_ROB_Stalls_Percent_7_Bucket_3: 1770
Critical_ROB_Stalls_Percent_7_Bucket_4: 18748
Non-critical_ROB_Stalls_Percent_7_Bucket_4: 899
Critical_ROB_Stalls_Percent_7_Bucket_5: 9745
Non-critical_ROB_Stalls_Percent_7_Bucket_5: 610
Critical_ROB_Stalls_Percent_7_Bucket_6: 17948
Non-critical_ROB_Stalls_Percent_7_Bucket_6: 1046
Critical_ROB_Stalls_Percent_8_Bucket_0: 2191112
Non-critical_ROB_Stalls_Percent_8_Bucket_0: 310538
Critical_ROB_Stalls_Percent_8_Bucket_1: 658280
Non-critical_ROB_Stalls_Percent_8_Bucket_1: 30723
Critical_ROB_Stalls_Percent_8_Bucket_2: 218273
Non-critical_ROB_Stalls_Percent_8_Bucket_2: 6415
Critical_ROB_Stalls_Percent_8_Bucket_3: 54004
Non-critical_ROB_Stalls_Percent_8_Bucket_3: 1685
Critical_ROB_Stalls_Percent_8_Bucket_4: 18751
Non-critical_ROB_Stalls_Percent_8_Bucket_4: 896
Critical_ROB_Stalls_Percent_8_Bucket_5: 9746
Non-critical_ROB_Stalls_Percent_8_Bucket_5: 609
Critical_ROB_Stalls_Percent_8_Bucket_6: 17948
Non-critical_ROB_Stalls_Percent_8_Bucket_6: 1046
Average ROB occupancy Load Stall Begin: 36.5759
Average ROB occupancy Load Stall End: 44.5585
Min ROB occupancy Load Stall Begin: 1
Max ROB occupancy Load Stall Begin: 352
Min ROB occupancy Load Stall End: 1
Max ROB occupancy Load Stall End: 352
Average ROB occupancy Critical Load Stall Begin: -nan
Average ROB occupancy Critical Load Stall End: -nan
Min ROB occupancy Critical Load Stall Begin: 400
Max ROB occupancy Critical Load Stall Begin: 0
Min ROB occupancy Critical Load Stall End: 400
Max ROB occupancy Critical Load Stall End: 0
 ROB Load Stall Begin Bucket Count 0: 2733918
 ROB Load Stall End Bucket Count 0: 2501650
 ROB Critical Load Stall Begin Bucket Count 0: 0
 ROB Critical Load Stall End Bucket Count 0: 0
 ROB Load Stall Begin Bucket Count 1: 532532
 ROB Load Stall End Bucket Count 1: 689003
 ROB Critical Load Stall Begin Bucket Count 1: 0
 ROB Critical Load Stall End Bucket Count 1: 0
 ROB Load Stall Begin Bucket Count 2: 167948
 ROB Load Stall End Bucket Count 2: 224688
 ROB Critical Load Stall Begin Bucket Count 2: 0
 ROB Critical Load Stall End Bucket Count 2: 0
 ROB Load Stall Begin Bucket Count 3: 41987
 ROB Load Stall End Bucket Count 3: 55689
 ROB Critical Load Stall Begin Bucket Count 3: 0
 ROB Critical Load Stall End Bucket Count 3: 0
 ROB Load Stall Begin Bucket Count 4: 16420
 ROB Load Stall End Bucket Count 4: 19647
 ROB Critical Load Stall Begin Bucket Count 4: 0
 ROB Critical Load Stall End Bucket Count 4: 0
 ROB Load Stall Begin Bucket Count 5: 9732
 ROB Load Stall End Bucket Count 5: 10355
 ROB Critical Load Stall Begin Bucket Count 5: 0
 ROB Critical Load Stall End Bucket Count 5: 0
 ROB Load Stall Begin Bucket Count 6: 17489
 ROB Load Stall End Bucket Count 6: 18994
 ROB Critical Load Stall Begin Bucket Count 6: 0
 ROB Critical Load Stall End Bucket Count 6: 0
PIST Tag Read Accesses: 2329916
PIST Read Accesses: 1164958
PIST Tag Write Accesses: 2329916
PIST Write Accesses: 1164958
Criticality detector called times: 3407118
Max global_stall_cycles_count: 1953536
Threshold Modified: 1 times, factor: -1
Sturdy critical IP cache stats: 
 Unused entries: 0
CIC Tag Read Accesses: 0
CIC Read Accesses: 0
CIC Tag Write Accesses: 0
CIC Write Accesses: 0
Wobbly critical IP cache stats: 
 Unused entries: 125
CIC Tag Read Accesses: 85680389
CIC Read Accesses: 0
CIC Tag Write Accesses: 3
CIC Write Accesses: 0
ITLB TOTAL     ACCESS:   10103085  HIT:    9440447  MISS:     662638  HIT %:    93.4412  MISS %:    6.55877   MPKI: 13.2528
ITLB LOAD TRANSLATION ACCESS:    8114735  HIT:    8022288  MISS:      92447  HIT %:    98.8608  MISS %:    1.13925   MPKI: 1.84894
ITLB TRANSLATION FROM L1D PREFETCHER ACCESS:    1988350  HIT:    1418159  MISS:     570191  HIT %:    71.3234  MISS %:    28.6766   MPKI: 11.4038
ITLB PREFETCH  REQUESTED:          0  ISSUED:          0  USEFUL:     455888  USELESS:     114302
ITLB USEFUL LOAD PREFETCHES:     455888 PREFETCH ISSUED TO LOWER LEVEL:          0  ACCURACY: inf
ITLB TIMELY PREFETCHES:     455888 LATE PREFETCHES: 293 DROPPED PREFETCHES: 3778
ITLB PREFETCHES SAME FILL-ORIGIN LEVEL: 0 DIFFERENT FILL-ORIGIN LEVEL: 0
ITLB AVERAGE MISS LATENCY: 18830.2 cycles
ITLB RQ	ACCESS:   15161627	FORWARD:          0	MERGED:    5013705	TO_CACHE:   10147922

DTLB TOTAL     ACCESS:   11552719  HIT:   11075463  MISS:     477256  HIT %:    95.8689  MISS %:    4.13111   MPKI: 9.54512
DTLB LOAD TRANSLATION ACCESS:   11552719  HIT:   11075463  MISS:     477256  HIT %:    95.8689  MISS %:    4.13111   MPKI: 9.54512
DTLB PREFETCH  REQUESTED:          0  ISSUED:          0  USEFUL:          0  USELESS:          0
DTLB USEFUL LOAD PREFETCHES:          0 PREFETCH ISSUED TO LOWER LEVEL:          0  ACCURACY: -nan
DTLB TIMELY PREFETCHES:          0 LATE PREFETCHES: 0 DROPPED PREFETCHES: 0
DTLB PREFETCHES SAME FILL-ORIGIN LEVEL: 0 DIFFERENT FILL-ORIGIN LEVEL: 0
DTLB AVERAGE MISS LATENCY: 9.24328 cycles
DTLB RQ	ACCESS:   15017910	FORWARD:          0	MERGED:    3438604	TO_CACHE:   11579306

STLB TOTAL     ACCESS:    1166431  HIT:    1164341  MISS:       2090  HIT %:    99.8208  MISS %:   0.179179   MPKI: 0.0418
STLB LOAD TRANSLATION ACCESS:     569410  HIT:     567384  MISS:       2026  HIT %:    99.6442  MISS %:   0.355807   MPKI: 0.04052
STLB TRANSLATION FROM L1D PREFETCHER ACCESS:     597021  HIT:     596957  MISS:         64  HIT %:    99.9893  MISS %:  0.0107199   MPKI: 0.00128
STLB PREFETCH  REQUESTED:          0  ISSUED:          0  USEFUL:         57  USELESS:          8
STLB USEFUL LOAD PREFETCHES:         57 PREFETCH ISSUED TO LOWER LEVEL:          0  ACCURACY: inf
STLB TIMELY PREFETCHES:         57 LATE PREFETCHES: 0 DROPPED PREFETCHES: 3778
STLB PREFETCHES SAME FILL-ORIGIN LEVEL: 0 DIFFERENT FILL-ORIGIN LEVEL: 0
STLB AVERAGE MISS LATENCY: 56.3278 cycles
STLB RQ	ACCESS:    1177317	FORWARD:          0	MERGED:       7108	TO_CACHE:    1170209

STLB Hit, L1D data hit: 0
STLB Hit, L2C data hit: 0
STLB Hit, LLC data hit: 0
STLB Hit, LLC data miss: 0
STLB STLB hints to L2: 0
L1D TOTAL     ACCESS:   14533505  HIT:   13462498  MISS:    1071007  HIT %:    92.6308  MISS %:    7.36923   MPKI: 21.4201
L1D LOAD      ACCESS:    8157790  HIT:    7388901  MISS:     768889  HIT %:    90.5748  MISS %:    9.42521   MPKI: 15.3778
L1D RFO       ACCESS:    6346987  HIT:    6055455  MISS:     291532  HIT %:    95.4068  MISS %:    4.59323   MPKI: 5.83064
L1D PREFETCH  ACCESS:      28728  HIT:      18142  MISS:      10586  HIT %:    63.1509  MISS %:    36.8491   MPKI: 0.21172
L1D PREFETCH  REQUESTED:      67306  ISSUED:      67306  USEFUL:       5160  USELESS:       5485
L1D USEFUL LOAD PREFETCHES:       5160 PREFETCH ISSUED TO LOWER LEVEL:      13843  ACCURACY: 37.2752
L1D TIMELY PREFETCHES:       5160 LATE PREFETCHES: 3237 DROPPED PREFETCHES: 0
L1D PREFETCHES SAME FILL-ORIGIN LEVEL: 13843 DIFFERENT FILL-ORIGIN LEVEL: 0
L1D AVERAGE MISS LATENCY: 106094 cycles
L1D RQ	ACCESS:   11660973	FORWARD:          0	MERGED:    3335695	TO_CACHE:    8187564
L1D WQ	ACCESS:    6901339	FORWARD:     137730	MERGED:      70993	TO_CACHE:    6830346
L1D PQ	ACCESS:      33661	FORWARD:          0	MERGED:          0	TO_CACHE:      33645

L1D UNIQUE REGIONS ACCESSED: 0
L1D REGIONS CONFLICTS: 0
L1D Cross Page Prefetch Requests: 0
L1D Same Page Prefetch Requests: 557918
L1D ROI Sum of L1D PQ occupancy: 462829
L1D PREFETCHES PUSHED FROM L2C: 0
L1I TOTAL     ACCESS:   15014702  HIT:   10892601  MISS:    4122101  HIT %:    72.5462  MISS %:    27.4538   MPKI: 82.442
L1I LOAD      ACCESS:    9553585  HIT:    9272797  MISS:     280788  HIT %:    97.0609  MISS %:    2.93909   MPKI: 5.61576
L1I PREFETCH  ACCESS:    5461117  HIT:    1619804  MISS:    3841313  HIT %:    29.6607  MISS %:    70.3393   MPKI: 76.8263
L1I PREFETCH  REQUESTED:    5719085  ISSUED:    5705907  USEFUL:    2591646  USELESS:    1249696
L1I USEFUL LOAD PREFETCHES:    2591646 PREFETCH ISSUED TO LOWER LEVEL:    3869740  ACCURACY: 66.9721
L1I TIMELY PREFETCHES:    2591646 LATE PREFETCHES: 28427 DROPPED PREFETCHES: 9231
L1I PREFETCHES SAME FILL-ORIGIN LEVEL: 3869740 DIFFERENT FILL-ORIGIN LEVEL: 0
L1I AVERAGE MISS LATENCY: 373758 cycles
L1I RQ	ACCESS:   13496249	FORWARD:          0	MERGED:    3920014	TO_CACHE:    9576235
L1I PQ	ACCESS:    5705907	FORWARD:          0	MERGED:     120515	TO_CACHE:    5585392

BTB TOTAL     ACCESS:    5981441  HIT:    3992143  MISS:    1989298  HIT %:    66.7422  MISS %:    33.2578   MPKI: 39.786
BTB BRANCH_DIRECT_JUMP	ACCESS:     522043  HIT:     347789  MISS:     174254
BTB BRANCH_INDIRECT	ACCESS:     204034  HIT:     166604  MISS:      37430
BTB BRANCH_CONDITIONAL	ACCESS:    3043077  HIT:    2486506  MISS:     556571
BTB BRANCH_DIRECT_CALL	ACCESS:     932385  HIT:     529353  MISS:     403032
BTB BRANCH_INDIRECT_CALL	ACCESS:     173762  HIT:      95752  MISS:      78010
BTB BRANCH_RETURN	ACCESS:    1106140  HIT:     366139  MISS:     740001
BTB BRANCH_OTHER ACCESS:          0  HIT:          0  MISS:          0

L2C TOTAL     ACCESS:    5714387  HIT:    5131507  MISS:     582880  HIT %:    89.7998  MISS %:    10.2002   MPKI: 11.6576
L2C LOAD      ACCESS:    1017929  HIT:     848086  MISS:     169843  HIT %:    83.3148  MISS %:    16.6852   MPKI: 3.39686
L2C DATA LOAD MPKI: 2.6978
L2C INSTRUCTION LOAD MPKI: 0.69906
L2C RFO       ACCESS:     291511  HIT:     216599  MISS:      74912  HIT %:    74.3022  MISS %:    25.6978   MPKI: 1.49824
L2C PREFETCH  ACCESS:    3883583  HIT:    3576624  MISS:     306959  HIT %:     92.096  MISS %:    7.90402   MPKI: 6.13918
L2C DATA PREFETCH MPKI: 0.17284
L2C INSTRUCTION PREFETCH MPKI: 5.96634
L2C WRITEBACK ACCESS:     512605  HIT:     482985  MISS:      29620  HIT %:    94.2217  MISS %:    5.77833   MPKI: 0.5924
L2C LOAD TRANSLATION ACCESS:       2131  HIT:        710  MISS:       1421  HIT %:    33.3177  MISS %:    66.6823   MPKI: 0.02842
L2C TRANSLATION FROM L1D PREFETCHER ACCESS:       6628  HIT:       6503  MISS:        125  HIT %:    98.1141  MISS %:    1.88594   MPKI: 0.0025
L2C PREFETCH  REQUESTED:          0  ISSUED:          0  USEFUL:       5376  USELESS:     302390
L2C USEFUL LOAD PREFETCHES:       5376 PREFETCH ISSUED TO LOWER LEVEL:     306959  ACCURACY: 1.75137
L2C TIMELY PREFETCHES:       5376 LATE PREFETCHES: 0 DROPPED PREFETCHES: 0
L2C PREFETCHES SAME FILL-ORIGIN LEVEL: 0 DIFFERENT FILL-ORIGIN LEVEL: 0
L2C AVERAGE MISS LATENCY: 34.5141 cycles
L2C RQ	ACCESS:    1318284	FORWARD:          0	MERGED:          0	TO_CACHE:    1318199
L2C WQ	ACCESS:     512605	FORWARD:         85	MERGED:          0	TO_CACHE:     512605
L2C PQ	ACCESS:    3883583	FORWARD:          0	MERGED:          0	TO_CACHE:    3883583

L2C Instructions Evicting Data 128864
L2C Translations Evicting Data 985
L2C Data Evicting Data 106388
L2C Instructions Evicting Instructions 203915
L2C Translations Evicting Instructions 501
L2C Data Evicting Instructions 111102
L2C Instructions Evicting Translations 491
L2C Translations Evicting Translations 60
L2C Data Evicting Translations 954
L2C Dense regions hint from L2: 0
PSCL5 TOTAL     ACCESS:       5868  HIT:       5868  MISS:          0  HIT %:        100  MISS %:          0   MPKI: 0
PSCL5 LOAD TRANSLATION ACCESS:       2026  HIT:       2026  MISS:          0  HIT %:        100  MISS %:          0   MPKI: 0
PSCL5 TRANSLATION FROM L1D PREFETCHER ACCESS:       3842  HIT:       3842  MISS:          0  HIT %:        100  MISS %:          0   MPKI: 0
PSCL5 PREFETCH  REQUESTED:          0  ISSUED:          0  USEFUL:          0  USELESS:          0
PSCL5 USEFUL LOAD PREFETCHES:          0 PREFETCH ISSUED TO LOWER LEVEL:          0  ACCURACY: -nan
PSCL5 TIMELY PREFETCHES:          0 LATE PREFETCHES: 0 DROPPED PREFETCHES: 0
PSCL5 PREFETCHES SAME FILL-ORIGIN LEVEL: 0 DIFFERENT FILL-ORIGIN LEVEL: 0

PSCL4 TOTAL     ACCESS:       5832  HIT:       5829  MISS:          3  HIT %:    99.9486  MISS %:  0.0514403   MPKI: 6e-05
PSCL4 LOAD TRANSLATION ACCESS:       1990  HIT:       1987  MISS:          3  HIT %:    99.8492  MISS %:   0.150754   MPKI: 6e-05
PSCL4 TRANSLATION FROM L1D PREFETCHER ACCESS:       3842  HIT:       3842  MISS:          0  HIT %:        100  MISS %:          0   MPKI: 0
PSCL4 PREFETCH  REQUESTED:          0  ISSUED:          0  USEFUL:          0  USELESS:          0
PSCL4 USEFUL LOAD PREFETCHES:          0 PREFETCH ISSUED TO LOWER LEVEL:          0  ACCURACY: -nan
PSCL4 TIMELY PREFETCHES:          0 LATE PREFETCHES: 0 DROPPED PREFETCHES: 0
PSCL4 PREFETCHES SAME FILL-ORIGIN LEVEL: 0 DIFFERENT FILL-ORIGIN LEVEL: 0

PSCL3 TOTAL     ACCESS:       5835  HIT:       5832  MISS:          3  HIT %:    99.9486  MISS %:  0.0514139   MPKI: 6e-05
PSCL3 LOAD TRANSLATION ACCESS:       1993  HIT:       1990  MISS:          3  HIT %:    99.8495  MISS %:   0.150527   MPKI: 6e-05
PSCL3 TRANSLATION FROM L1D PREFETCHER ACCESS:       3842  HIT:       3842  MISS:          0  HIT %:        100  MISS %:          0   MPKI: 0
PSCL3 PREFETCH  REQUESTED:          0  ISSUED:          0  USEFUL:          0  USELESS:          0
PSCL3 USEFUL LOAD PREFETCHES:          0 PREFETCH ISSUED TO LOWER LEVEL:          0  ACCURACY: -nan
PSCL3 TIMELY PREFETCHES:          0 LATE PREFETCHES: 0 DROPPED PREFETCHES: 0
PSCL3 PREFETCHES SAME FILL-ORIGIN LEVEL: 0 DIFFERENT FILL-ORIGIN LEVEL: 0

PSCL2 TOTAL     ACCESS:       3091  HIT:       2982  MISS:        109  HIT %:    96.4736  MISS %:    3.52637   MPKI: 0.00218
PSCL2 LOAD TRANSLATION ACCESS:       2035  HIT:       1926  MISS:        109  HIT %:    94.6437  MISS %:    5.35627   MPKI: 0.00218
PSCL2 TRANSLATION FROM L1D PREFETCHER ACCESS:       1056  HIT:       1056  MISS:          0  HIT %:        100  MISS %:          0   MPKI: 0
PSCL2 PREFETCH  REQUESTED:          0  ISSUED:          0  USEFUL:          0  USELESS:          0
PSCL2 USEFUL LOAD PREFETCHES:          0 PREFETCH ISSUED TO LOWER LEVEL:          0  ACCURACY: -nan
PSCL2 TIMELY PREFETCHES:          0 LATE PREFETCHES: 0 DROPPED PREFETCHES: 0
PSCL2 PREFETCHES SAME FILL-ORIGIN LEVEL: 0 DIFFERENT FILL-ORIGIN LEVEL: 0

LLC TOTAL     ACCESS:     659261  HIT:     638222  MISS:      21039  HIT %:    96.8087  MISS %:     3.1913   MPKI: 0.42078
LLC LOAD      ACCESS:     169843  HIT:     162753  MISS:       7090  HIT %:    95.8256  MISS %:    4.17444   MPKI: 0.1418
LLC RFO       ACCESS:      74912  HIT:      63976  MISS:      10936  HIT %:    85.4015  MISS %:    14.5985   MPKI: 0.21872
LLC PREFETCH  ACCESS:     306958  HIT:     304277  MISS:       2681  HIT %:    99.1266  MISS %:   0.873409   MPKI: 0.05362
LLC WRITEBACK ACCESS:     106002  HIT:     105774  MISS:        228  HIT %:    99.7849  MISS %:    0.21509   MPKI: 0.00456
LLC LOAD TRANSLATION ACCESS:       1421  HIT:       1325  MISS:         96  HIT %:    93.2442  MISS %:    6.75581   MPKI: 0.00192
LLC TRANSLATION FROM L1D PREFETCHER ACCESS:        125  HIT:        117  MISS:          8  HIT %:       93.6  MISS %:        6.4   MPKI: 0.00016
LLC PREFETCH  REQUESTED:          0  ISSUED:          0  USEFUL:       1808  USELESS:       5944
LLC USEFUL LOAD PREFETCHES:       1808 PREFETCH ISSUED TO LOWER LEVEL:       2681  ACCURACY: 67.4375
LLC TIMELY PREFETCHES:       1808 LATE PREFETCHES: 0 DROPPED PREFETCHES: 0
LLC PREFETCHES SAME FILL-ORIGIN LEVEL: 0 DIFFERENT FILL-ORIGIN LEVEL: 0
LLC AVERAGE MISS LATENCY: 166.753 cycles
LLC RQ	ACCESS:     246301	FORWARD:          0	MERGED:          0	TO_CACHE:     246301
LLC WQ	ACCESS:     106002	FORWARD:          1	MERGED:          0	TO_CACHE:     106002
LLC PQ	ACCESS:     306959	FORWARD:          0	MERGED:          0	TO_CACHE:     306958

LLC Dense regions hint to LLC: 0

RAW hits: 954847
Loads Generated: 12615820
Loads sent to L1D: 11660973
Stores Generated: 6901350
Stores sent to L1D: 6901339
Major fault: 0 Minor fault: 2264
Allocated PAGES: 2264
I-Shadow cache 408 bytes
Touched + WorthPF tables 6144 bytes 
MMA filter 174 bytes 
FNL filter 272 bytes 
TOTAL PREFETCHER STORAGE SIZE: 25174 bytes
CPU 0 L1I next line prefetcher final stats

stream: 
stream:times selected: 1694199
stream:pref_filled: 99099
stream:pref_useful: 22646
stream:pref_late: 6191
stream:misses: 12204
stream:misses_by_poll: 0

CS: 
CS:times selected: 230945
CS:pref_filled: 53745
CS:pref_useful: 38127
CS:pref_late: 3744
CS:misses: 49038
CS:misses_by_poll: 3

CPLX: 
CPLX:times selected: 1460266
CPLX:pref_filled: 23425
CPLX:pref_useful: 6609
CPLX:pref_late: 1905
CPLX:misses: 151242
CPLX:misses_by_poll: 0

NL_L1: 
NL:times selected: 8477
NL:pref_filled: 522
NL:pref_useful: 115
NL:pref_late: 54
NL:misses: 567
NL:misses_by_poll: 0

total selections: 3393887
total_filled: 10586
total_useful: 5160
total_late: 12771
total_polluted: 3
total_misses_after_warmup: 798663
conflicts: 2956237
Degree Incremented Times: 0
Degree Decremented Times: 135969

L1 IP Table Write Accesses: 4949789
L1 IP Table Read Accesses: 1993552
L1 RST Write Accesses: 860153
L1 RST Read Accesses: 1720306
L1 CSPT Write Accesses: 860153
L1 CSPT Read Accesses: 1597994
L1 RR Filter Tag Write Accesses: 33661
L1 RR Filter Tag Read Accesses: 3696152
L1 IP Table Tag Write Accesses: 8187564
L1 IP Table Tag Read Accesses: 8187564
L1 RST Tag Write Accesses: 0
L1 RST Tag Read Accesses: 7403459
L1 RR Filter Write Accesses: 0
L1 RR Filter Read Accesses: 134648
test: 237742

DRAM Statistics
 CHANNEL 0
 RQ ROW_BUFFER_HIT:       7597  ROW_BUFFER_MISS:      13206
 DBUS_CONGESTED:          3
 WQ ROW_BUFFER_HIT:       1229  ROW_BUFFER_MISS:       8791  FULL:          0

 AVG_CONGESTED_CYCLE: 5
 All warmup complete: 2
Channel 0 Bank busy for read cycles: 0
Channel 0 Bank busy for write cycles: 0
Channel 0
Rank 0
0banks busy for read cycles: 79608466
0banks busy for write cycles: 2593
1banks busy for read cycles: 986008
1banks busy for write cycles: 367435
2banks busy for read cycles: 121190
2banks busy for write cycles: 113549
3banks busy for read cycles: 60390
3banks busy for write cycles: 69987
4banks busy for read cycles: 35256
4banks busy for write cycles: 50530
5banks busy for read cycles: 29251
5banks busy for write cycles: 44499
6banks busy for read cycles: 25540
6banks busy for write cycles: 35802
7banks busy for read cycles: 23733
7banks busy for write cycles: 35572
8banks busy for read cycles: 46216
8banks busy for write cycles: 78068

CPU 0 Branch Prediction Accuracy: 99.822% MPKI: 0.32584 Average ROB Occupancy at Mispredict: 73.9605
Branch types
NOT_BRANCH: 40848387 81.6968%
BRANCH_DIRECT_JUMP: 522043 1.04409%
BRANCH_INDIRECT: 204034 0.408068%
BRANCH_CONDITIONAL: 6212933 12.4259%
BRANCH_DIRECT_CALL: 932385 1.86477%
BRANCH_INDIRECT_CALL: 173762 0.347524%
BRANCH_RETURN: 1106140 2.21228%
BRANCH_OTHER: 0 0%

DRAM PAGES: 1048576
Allocated PAGES: 2264
