
*** ChampSim Multicore Out-of-Order Simulator ***

Warmup Instructions: 50000000
Simulation Instructions: 50000000
Number of CPUs: 1
LLC sets: 2048
LLC ways: 16
Off-chip DRAM Size: 4096 MB Channels: 1 Width: 64-bit Data Rate: 6400 MT/s
CPU 0 runs ../IPC-traces//server_012.champsimtrace.xz
.xz
BTB has LRU replacement policy
ITLB has LRU replacement policy
DTLB has LRU replacement policy
STLB has LRU replacement policy
CPU 0 L1I next line prefetcher
L1I has LRU replacement policy
L1D has LRU replacement policy
Bingo PHT WAYS: 16 and PHT_SIZE: 16384
Initialize SRRIP state for L2C
Initialize DRRIP state for LLC
Heartbeat CPU 0 instructions: 10000002 cycles: 2760411 heartbeat IPC: 3.62265 cumulative IPC: 3.62265 (Simulation time: 0 hr 3 min 38 sec) 
Heartbeat CPU 0 instructions: 20000002 cycles: 5515265 heartbeat IPC: 3.62996 cumulative IPC: 3.6263 (Simulation time: 0 hr 7 min 7 sec) 
Heartbeat CPU 0 instructions: 30000003 cycles: 8268587 heartbeat IPC: 3.63198 cumulative IPC: 3.62819 (Simulation time: 0 hr 10 min 29 sec) 
Heartbeat CPU 0 instructions: 40000000 cycles: 11023723 heartbeat IPC: 3.62958 cumulative IPC: 3.62854 (Simulation time: 0 hr 13 min 53 sec) 
Heartbeat CPU 0 instructions: 50000003 cycles: 13779059 heartbeat IPC: 3.62932 cumulative IPC: 3.6287 (Simulation time: 0 hr 16 min 32 sec) 

Warmup complete CPU 0 instructions: 50000003 cycles: 13779059 (Simulation time: 0 hr 16 min 32 sec) 

Heartbeat CPU 0 instructions: 60000000 cycles: 27810856 heartbeat IPC: 0.712667 cumulative IPC: 0.712667 (Simulation time: 0 hr 19 min 48 sec) 
Heartbeat CPU 0 instructions: 70000000 cycles: 41792351 heartbeat IPC: 0.715231 cumulative IPC: 0.713947 (Simulation time: 0 hr 23 min 1 sec) 
Heartbeat CPU 0 instructions: 80000003 cycles: 55959418 heartbeat IPC: 0.705863 cumulative IPC: 0.711232 (Simulation time: 0 hr 26 min 20 sec) 
Heartbeat CPU 0 instructions: 90000000 cycles: 70252956 heartbeat IPC: 0.699617 cumulative IPC: 0.708292 (Simulation time: 0 hr 29 min 42 sec) 
Heartbeat CPU 0 instructions: 100000002 cycles: 84386858 heartbeat IPC: 0.707519 cumulative IPC: 0.708137 (Simulation time: 0 hr 32 min 41 sec) 
Finished CPU 0 instructions: 50000001 cycles: 70607802 cumulative IPC: 0.708137 (Simulation time: 0 hr 32 min 41 sec) 

ChampSim completed all CPUs

Region of Interest Statistics

CPU 0 cumulative IPC: 0.708137 instructions: 50000001 cycles: 70607802

CPU 0 Average Load ROB stall cycles: 1.88738e+07
CPU 0 Fraction of times ROB stalled by Loads: 38.5175
CPU 0 Percentage of Load stall cycles in Total stall cycles: 2.20231e+08
Issued all: 27454937
Issued LT all: 21316680
rob_not_full_when_issued_lt_all: 20252020
Issued LT one: 16948614
rob_not_full_when_issued_lt_one: 16036508
 Total stall cycles: 57401080
 Total load stall cycles: 126414912126759
Unique Load IPs: 30734
CPU 0 NUM of IPS identified critical: 59
CPU 0 Num of Load IPs stalling ROB: 0
Threshold modification factor: 0
Trouble in retire width: -nan
MaC = Marked as critical.
lt_50_percent_before_Mac: 17
gt_90_percent_before_Mac: 3
gt_75_percent_before_Mac: 15
gt_50_percent_before_Mac: 20
stall_proportion_bin_same_before_after: 0
stall_proportion_bin_lower_before_after: 0
stall_proportion_bin_upper_before_after: 0
average_stall_proportion_before: 0.0362133
average_stall_proportion_after: 0.0349217
Critical_IP_Detector_Accuracy_70: 0
Critical_IP_Detector_Accuracy_80: 0
Critical_IP_Detector_Accuracy_90: 0
Critical_IP_Detector_Coverage_70: 0
Critical_IP_Detector_Coverage_80: 0
Critical_IP_Detector_Coverage_90: 0
stat_90_percent_critical_ip_stalls_freq: 34038
stat_90_percent_non_critical_ip_stalls_freq: 18446744073709517578
AVERAGE_ROB_Occupancy_90_Percent_Critical_IP_Stalls: 47.2244
AVERAGE_ROB_Occupancy_90_Percent_Non_Critical_IP_Stalls: 9.63169e-12
Critical_IP_ROB_Stalls_Bucket_0: 14524
Non-critical_IP_ROB_Stalls_Bucket_0: 1300273
Critical_IP_ROB_Stalls_Bucket_1: 5673
Non-critical_IP_ROB_Stalls_Bucket_1: 747993
Critical_IP_ROB_Stalls_Bucket_2: 2591
Non-critical_IP_ROB_Stalls_Bucket_2: 275552
Critical_IP_ROB_Stalls_Bucket_3: 1493
Non-critical_IP_ROB_Stalls_Bucket_3: 92726
Critical_IP_ROB_Stalls_Bucket_4: 485
Non-critical_IP_ROB_Stalls_Bucket_4: 51551
Critical_IP_ROB_Stalls_Bucket_5: 171
Non-critical_IP_ROB_Stalls_Bucket_5: 29698
Critical_IP_ROB_Stalls_Bucket_6: 25
Non-critical_IP_ROB_Stalls_Bucket_6: 57116
0 => IPs accounting for >50 percent of stalls, 1 => 55, 2 => 60, 3 => 65 and so on till 90.
percent50: inf num IPs:  1
percent55: inf num IPs: 1
percent60: inf num IPs: 1
percent65: inf num IPs: 1
percent70: inf num IPs: 1
percent75: inf num IPs: 1
percent80: inf num IPs: 1
percent85: inf num IPs: 1
percent90: inf num IPs: 1
Critical_ROB_Stalls_Percent_0_Bucket_0: 28108
Non-critical_ROB_Stalls_Percent_0_Bucket_0: 1286689
Critical_ROB_Stalls_Percent_0_Bucket_1: 5859
Non-critical_ROB_Stalls_Percent_0_Bucket_1: 747807
Critical_ROB_Stalls_Percent_0_Bucket_2: 41
Non-critical_ROB_Stalls_Percent_0_Bucket_2: 278102
Critical_ROB_Stalls_Percent_0_Bucket_3: 14
Non-critical_ROB_Stalls_Percent_0_Bucket_3: 94205
Critical_ROB_Stalls_Percent_0_Bucket_4: 16
Non-critical_ROB_Stalls_Percent_0_Bucket_4: 52020
Critical_ROB_Stalls_Percent_0_Bucket_5: 0
Non-critical_ROB_Stalls_Percent_0_Bucket_5: 29869
Critical_ROB_Stalls_Percent_0_Bucket_6: 0
Non-critical_ROB_Stalls_Percent_0_Bucket_6: 57141
Critical_ROB_Stalls_Percent_1_Bucket_0: 28108
Non-critical_ROB_Stalls_Percent_1_Bucket_0: 1286689
Critical_ROB_Stalls_Percent_1_Bucket_1: 5859
Non-critical_ROB_Stalls_Percent_1_Bucket_1: 747807
Critical_ROB_Stalls_Percent_1_Bucket_2: 41
Non-critical_ROB_Stalls_Percent_1_Bucket_2: 278102
Critical_ROB_Stalls_Percent_1_Bucket_3: 14
Non-critical_ROB_Stalls_Percent_1_Bucket_3: 94205
Critical_ROB_Stalls_Percent_1_Bucket_4: 16
Non-critical_ROB_Stalls_Percent_1_Bucket_4: 52020
Critical_ROB_Stalls_Percent_1_Bucket_5: 0
Non-critical_ROB_Stalls_Percent_1_Bucket_5: 29869
Critical_ROB_Stalls_Percent_1_Bucket_6: 0
Non-critical_ROB_Stalls_Percent_1_Bucket_6: 57141
Critical_ROB_Stalls_Percent_2_Bucket_0: 28108
Non-critical_ROB_Stalls_Percent_2_Bucket_0: 1286689
Critical_ROB_Stalls_Percent_2_Bucket_1: 5859
Non-critical_ROB_Stalls_Percent_2_Bucket_1: 747807
Critical_ROB_Stalls_Percent_2_Bucket_2: 41
Non-critical_ROB_Stalls_Percent_2_Bucket_2: 278102
Critical_ROB_Stalls_Percent_2_Bucket_3: 14
Non-critical_ROB_Stalls_Percent_2_Bucket_3: 94205
Critical_ROB_Stalls_Percent_2_Bucket_4: 16
Non-critical_ROB_Stalls_Percent_2_Bucket_4: 52020
Critical_ROB_Stalls_Percent_2_Bucket_5: 0
Non-critical_ROB_Stalls_Percent_2_Bucket_5: 29869
Critical_ROB_Stalls_Percent_2_Bucket_6: 0
Non-critical_ROB_Stalls_Percent_2_Bucket_6: 57141
Critical_ROB_Stalls_Percent_3_Bucket_0: 28108
Non-critical_ROB_Stalls_Percent_3_Bucket_0: 1286689
Critical_ROB_Stalls_Percent_3_Bucket_1: 5859
Non-critical_ROB_Stalls_Percent_3_Bucket_1: 747807
Critical_ROB_Stalls_Percent_3_Bucket_2: 41
Non-critical_ROB_Stalls_Percent_3_Bucket_2: 278102
Critical_ROB_Stalls_Percent_3_Bucket_3: 14
Non-critical_ROB_Stalls_Percent_3_Bucket_3: 94205
Critical_ROB_Stalls_Percent_3_Bucket_4: 16
Non-critical_ROB_Stalls_Percent_3_Bucket_4: 52020
Critical_ROB_Stalls_Percent_3_Bucket_5: 0
Non-critical_ROB_Stalls_Percent_3_Bucket_5: 29869
Critical_ROB_Stalls_Percent_3_Bucket_6: 0
Non-critical_ROB_Stalls_Percent_3_Bucket_6: 57141
Critical_ROB_Stalls_Percent_4_Bucket_0: 28108
Non-critical_ROB_Stalls_Percent_4_Bucket_0: 1286689
Critical_ROB_Stalls_Percent_4_Bucket_1: 5859
Non-critical_ROB_Stalls_Percent_4_Bucket_1: 747807
Critical_ROB_Stalls_Percent_4_Bucket_2: 41
Non-critical_ROB_Stalls_Percent_4_Bucket_2: 278102
Critical_ROB_Stalls_Percent_4_Bucket_3: 14
Non-critical_ROB_Stalls_Percent_4_Bucket_3: 94205
Critical_ROB_Stalls_Percent_4_Bucket_4: 16
Non-critical_ROB_Stalls_Percent_4_Bucket_4: 52020
Critical_ROB_Stalls_Percent_4_Bucket_5: 0
Non-critical_ROB_Stalls_Percent_4_Bucket_5: 29869
Critical_ROB_Stalls_Percent_4_Bucket_6: 0
Non-critical_ROB_Stalls_Percent_4_Bucket_6: 57141
Critical_ROB_Stalls_Percent_5_Bucket_0: 28108
Non-critical_ROB_Stalls_Percent_5_Bucket_0: 1286689
Critical_ROB_Stalls_Percent_5_Bucket_1: 5859
Non-critical_ROB_Stalls_Percent_5_Bucket_1: 747807
Critical_ROB_Stalls_Percent_5_Bucket_2: 41
Non-critical_ROB_Stalls_Percent_5_Bucket_2: 278102
Critical_ROB_Stalls_Percent_5_Bucket_3: 14
Non-critical_ROB_Stalls_Percent_5_Bucket_3: 94205
Critical_ROB_Stalls_Percent_5_Bucket_4: 16
Non-critical_ROB_Stalls_Percent_5_Bucket_4: 52020
Critical_ROB_Stalls_Percent_5_Bucket_5: 0
Non-critical_ROB_Stalls_Percent_5_Bucket_5: 29869
Critical_ROB_Stalls_Percent_5_Bucket_6: 0
Non-critical_ROB_Stalls_Percent_5_Bucket_6: 57141
Critical_ROB_Stalls_Percent_6_Bucket_0: 28108
Non-critical_ROB_Stalls_Percent_6_Bucket_0: 1286689
Critical_ROB_Stalls_Percent_6_Bucket_1: 5859
Non-critical_ROB_Stalls_Percent_6_Bucket_1: 747807
Critical_ROB_Stalls_Percent_6_Bucket_2: 41
Non-critical_ROB_Stalls_Percent_6_Bucket_2: 278102
Critical_ROB_Stalls_Percent_6_Bucket_3: 14
Non-critical_ROB_Stalls_Percent_6_Bucket_3: 94205
Critical_ROB_Stalls_Percent_6_Bucket_4: 16
Non-critical_ROB_Stalls_Percent_6_Bucket_4: 52020
Critical_ROB_Stalls_Percent_6_Bucket_5: 0
Non-critical_ROB_Stalls_Percent_6_Bucket_5: 29869
Critical_ROB_Stalls_Percent_6_Bucket_6: 0
Non-critical_ROB_Stalls_Percent_6_Bucket_6: 57141
Critical_ROB_Stalls_Percent_7_Bucket_0: 28108
Non-critical_ROB_Stalls_Percent_7_Bucket_0: 1286689
Critical_ROB_Stalls_Percent_7_Bucket_1: 5859
Non-critical_ROB_Stalls_Percent_7_Bucket_1: 747807
Critical_ROB_Stalls_Percent_7_Bucket_2: 41
Non-critical_ROB_Stalls_Percent_7_Bucket_2: 278102
Critical_ROB_Stalls_Percent_7_Bucket_3: 14
Non-critical_ROB_Stalls_Percent_7_Bucket_3: 94205
Critical_ROB_Stalls_Percent_7_Bucket_4: 16
Non-critical_ROB_Stalls_Percent_7_Bucket_4: 52020
Critical_ROB_Stalls_Percent_7_Bucket_5: 0
Non-critical_ROB_Stalls_Percent_7_Bucket_5: 29869
Critical_ROB_Stalls_Percent_7_Bucket_6: 0
Non-critical_ROB_Stalls_Percent_7_Bucket_6: 57141
Critical_ROB_Stalls_Percent_8_Bucket_0: 28108
Non-critical_ROB_Stalls_Percent_8_Bucket_0: 1286689
Critical_ROB_Stalls_Percent_8_Bucket_1: 5859
Non-critical_ROB_Stalls_Percent_8_Bucket_1: 747807
Critical_ROB_Stalls_Percent_8_Bucket_2: 41
Non-critical_ROB_Stalls_Percent_8_Bucket_2: 278102
Critical_ROB_Stalls_Percent_8_Bucket_3: 14
Non-critical_ROB_Stalls_Percent_8_Bucket_3: 94205
Critical_ROB_Stalls_Percent_8_Bucket_4: 16
Non-critical_ROB_Stalls_Percent_8_Bucket_4: 52020
Critical_ROB_Stalls_Percent_8_Bucket_5: 0
Non-critical_ROB_Stalls_Percent_8_Bucket_5: 29869
Critical_ROB_Stalls_Percent_8_Bucket_6: 0
Non-critical_ROB_Stalls_Percent_8_Bucket_6: 57141
Average ROB occupancy Load Stall Begin: 57.5573
Average ROB occupancy Load Stall End: 69.4921
Min ROB occupancy Load Stall Begin: 1
Max ROB occupancy Load Stall Begin: 352
Min ROB occupancy Load Stall End: 1
Max ROB occupancy Load Stall End: 352
Average ROB occupancy Critical Load Stall Begin: 69.7882
Average ROB occupancy Critical Load Stall End: 79.3071
Min ROB occupancy Critical Load Stall Begin: 2
Max ROB occupancy Critical Load Stall Begin: 352
Min ROB occupancy Critical Load Stall End: 2
Max ROB occupancy Critical Load Stall End: 352
 ROB Load Stall Begin Bucket Count 0: 1608298
 ROB Load Stall End Bucket Count 0: 1314797
 ROB Critical Load Stall Begin Bucket Count 0: 4347
 ROB Critical Load Stall End Bucket Count 0: 3647
 ROB Load Stall Begin Bucket Count 1: 573018
 ROB Load Stall End Bucket Count 1: 753666
 ROB Critical Load Stall Begin Bucket Count 1: 2174
 ROB Critical Load Stall End Bucket Count 1: 2447
 ROB Load Stall Begin Bucket Count 2: 213680
 ROB Load Stall End Bucket Count 2: 278143
 ROB Critical Load Stall Begin Bucket Count 2: 1094
 ROB Critical Load Stall End Bucket Count 2: 1341
 ROB Load Stall Begin Bucket Count 3: 69697
 ROB Load Stall End Bucket Count 3: 94219
 ROB Critical Load Stall Begin Bucket Count 3: 671
 ROB Critical Load Stall End Bucket Count 3: 768
 ROB Load Stall Begin Bucket Count 4: 41334
 ROB Load Stall End Bucket Count 4: 52036
 ROB Critical Load Stall Begin Bucket Count 4: 274
 ROB Critical Load Stall End Bucket Count 4: 327
 ROB Load Stall Begin Bucket Count 5: 25405
 ROB Load Stall End Bucket Count 5: 29869
 ROB Critical Load Stall Begin Bucket Count 5: 94
 ROB Critical Load Stall End Bucket Count 5: 130
 ROB Load Stall Begin Bucket Count 6: 48440
 ROB Load Stall End Bucket Count 6: 57141
 ROB Critical Load Stall Begin Bucket Count 6: 8
 ROB Critical Load Stall End Bucket Count 6: 11
PIST Tag Read Accesses: 0
PIST Read Accesses: 0
PIST Tag Write Accesses: 0
PIST Write Accesses: 0
Criticality detector called times: 0
Max global_stall_cycles_count: 0
Threshold Modified: 0 times, factor: 0
Sturdy critical IP cache stats: 
 Unused entries: 0
CIC Tag Read Accesses: 0
CIC Read Accesses: 0
CIC Tag Write Accesses: 0
CIC Write Accesses: 0
Wobbly critical IP cache stats: 
 Unused entries: 0
CIC Tag Read Accesses: 125246321
CIC Read Accesses: 0
CIC Tag Write Accesses: 56269
CIC Write Accesses: 0
ITLB TOTAL     ACCESS:    8953826  HIT:    8705817  MISS:     248009  HIT %:    97.2301  MISS %:    2.76987   MPKI: 4.96018
ITLB LOAD TRANSLATION ACCESS:    7674156  HIT:    7604010  MISS:      70146  HIT %:    99.0859  MISS %:   0.914055   MPKI: 1.40292
ITLB TRANSLATION FROM L1D PREFETCHER ACCESS:    1279670  HIT:    1101807  MISS:     177863  HIT %:    86.1009  MISS %:    13.8991   MPKI: 3.55726
ITLB PREFETCH  REQUESTED:          0  ISSUED:          0  USEFUL:     145462  USELESS:      32406
ITLB USEFUL LOAD PREFETCHES:     145462 PREFETCH ISSUED TO LOWER LEVEL:          0  ACCURACY: inf
ITLB TIMELY PREFETCHES:     145462 LATE PREFETCHES: 959 DROPPED PREFETCHES: 14366
ITLB PREFETCHES SAME FILL-ORIGIN LEVEL: 0 DIFFERENT FILL-ORIGIN LEVEL: 0
ITLB AVERAGE MISS LATENCY: 199226 cycles
ITLB RQ	ACCESS:   12604087	FORWARD:          0	MERGED:    3604093	TO_CACHE:    8999994

DTLB TOTAL     ACCESS:    9351874  HIT:    8712970  MISS:     638904  HIT %:    93.1682  MISS %:    6.83183   MPKI: 12.7781
DTLB LOAD TRANSLATION ACCESS:    9351874  HIT:    8712970  MISS:     638904  HIT %:    93.1682  MISS %:    6.83183   MPKI: 12.7781
DTLB PREFETCH  REQUESTED:          0  ISSUED:          0  USEFUL:          0  USELESS:          0
DTLB USEFUL LOAD PREFETCHES:          0 PREFETCH ISSUED TO LOWER LEVEL:          0  ACCURACY: -nan
DTLB TIMELY PREFETCHES:          0 LATE PREFETCHES: 0 DROPPED PREFETCHES: 0
DTLB PREFETCHES SAME FILL-ORIGIN LEVEL: 0 DIFFERENT FILL-ORIGIN LEVEL: 0
DTLB AVERAGE MISS LATENCY: 15.1295 cycles
DTLB RQ	ACCESS:   11881076	FORWARD:          0	MERGED:    2489117	TO_CACHE:    9391959

STLB TOTAL     ACCESS:     886913  HIT:     766423  MISS:     120490  HIT %:    86.4147  MISS %:    13.5853   MPKI: 2.4098
STLB LOAD TRANSLATION ACCESS:     708091  HIT:     616046  MISS:      92045  HIT %:     87.001  MISS %:     12.999   MPKI: 1.8409
STLB TRANSLATION FROM L1D PREFETCHER ACCESS:     178822  HIT:     150377  MISS:      28445  HIT %:    84.0931  MISS %:    15.9069   MPKI: 0.5689
STLB PREFETCH  REQUESTED:          0  ISSUED:          0  USEFUL:      16504  USELESS:      11925
STLB USEFUL LOAD PREFETCHES:      16504 PREFETCH ISSUED TO LOWER LEVEL:          0  ACCURACY: inf
STLB TIMELY PREFETCHES:      16504 LATE PREFETCHES: 0 DROPPED PREFETCHES: 14366
STLB PREFETCHES SAME FILL-ORIGIN LEVEL: 0 DIFFERENT FILL-ORIGIN LEVEL: 0
STLB AVERAGE MISS LATENCY: 45.8045 cycles
STLB RQ	ACCESS:     901279	FORWARD:          0	MERGED:          0	TO_CACHE:     901279

STLB Hit, L1D data hit: 0
STLB Hit, L2C data hit: 0
STLB Hit, LLC data hit: 0
STLB Hit, LLC data miss: 0
STLB STLB hints to L2: 0
L1D TOTAL     ACCESS:   11716677  HIT:   11080830  MISS:     635847  HIT %:    94.5731  MISS %:    5.42685   MPKI: 12.7169
L1D LOAD      ACCESS:    6739593  HIT:    6194306  MISS:     545287  HIT %:    91.9092  MISS %:     8.0908   MPKI: 10.9057
L1D RFO       ACCESS:    4977084  HIT:    4886524  MISS:      90560  HIT %:    98.1805  MISS %:    1.81954   MPKI: 1.8112
L1D PREFETCH  REQUESTED:          0  ISSUED:          0  USEFUL:          0  USELESS:          0
L1D USEFUL LOAD PREFETCHES:          0 PREFETCH ISSUED TO LOWER LEVEL:          0  ACCURACY: -nan
L1D TIMELY PREFETCHES:          0 LATE PREFETCHES: 0 DROPPED PREFETCHES: 0
L1D PREFETCHES SAME FILL-ORIGIN LEVEL: 0 DIFFERENT FILL-ORIGIN LEVEL: 0
L1D AVERAGE MISS LATENCY: 47.6856 cycles
L1D RQ	ACCESS:   10395825	FORWARD:          0	MERGED:    3529818	TO_CACHE:    6778536
L1D WQ	ACCESS:    5225435	FORWARD:      87471	MERGED:     122895	TO_CACHE:    5102540

L1D UNIQUE REGIONS ACCESSED: 0
L1D REGIONS CONFLICTS: 0
L1D Cross Page Prefetch Requests: 0
L1D Same Page Prefetch Requests: 0
L1D ROI Sum of L1D PQ occupancy: 0
L1D PREFETCHES PUSHED FROM L2C: 0
L1I TOTAL     ACCESS:   12420706  HIT:   10342350  MISS:    2078356  HIT %:     83.267  MISS %:     16.733   MPKI: 41.5671
L1I LOAD      ACCESS:    9420421  HIT:    9165626  MISS:     254795  HIT %:    97.2953  MISS %:    2.70471   MPKI: 5.0959
L1I PREFETCH  ACCESS:    3000285  HIT:    1176724  MISS:    1823561  HIT %:    39.2204  MISS %:    60.7796   MPKI: 36.4712
L1I PREFETCH  REQUESTED:    3268049  ISSUED:    3260423  USEFUL:    1204808  USELESS:     618796
L1I USEFUL LOAD PREFETCHES:    1204808 PREFETCH ISSUED TO LOWER LEVEL:    1857636  ACCURACY: 64.8571
L1I TIMELY PREFETCHES:    1204808 LATE PREFETCHES: 34073 DROPPED PREFETCHES: 46485
L1I PREFETCHES SAME FILL-ORIGIN LEVEL: 1857636 DIFFERENT FILL-ORIGIN LEVEL: 0
L1I AVERAGE MISS LATENCY: 808239 cycles
L1I RQ	ACCESS:   13690195	FORWARD:          0	MERGED:    4242386	TO_CACHE:    9447809
L1I PQ	ACCESS:    3260423	FORWARD:          0	MERGED:     104145	TO_CACHE:    3156278

BTB TOTAL     ACCESS:    4512073  HIT:    3722868  MISS:     789205  HIT %:     82.509  MISS %:     17.491   MPKI: 15.7841
BTB BRANCH_DIRECT_JUMP	ACCESS:     469808  HIT:     407044  MISS:      62764
BTB BRANCH_INDIRECT	ACCESS:     153732  HIT:     119846  MISS:      33886
BTB BRANCH_CONDITIONAL	ACCESS:    2157420  HIT:    1900788  MISS:     256632
BTB BRANCH_DIRECT_CALL	ACCESS:     679877  HIT:     561787  MISS:     118090
BTB BRANCH_INDIRECT_CALL	ACCESS:     168745  HIT:     156218  MISS:      12527
BTB BRANCH_RETURN	ACCESS:     882491  HIT:     577185  MISS:     305306
BTB BRANCH_OTHER ACCESS:          0  HIT:          0  MISS:          0

L2C TOTAL     ACCESS:    3149888  HIT:    1972874  MISS:    1177014  HIT %:    62.6331  MISS %:    37.3669   MPKI: 23.5403
L2C LOAD      ACCESS:     765988  HIT:     360925  MISS:     405063  HIT %:    47.1189  MISS %:    52.8811   MPKI: 8.10126
L2C DATA LOAD MPKI: 6.30918
L2C INSTRUCTION LOAD MPKI: 1.79208
L2C RFO       ACCESS:      90556  HIT:      41099  MISS:      49457  HIT %:    45.3852  MISS %:    54.6148   MPKI: 0.98914
L2C PREFETCH  ACCESS:    1859278  HIT:    1221244  MISS:     638034  HIT %:    65.6838  MISS %:    34.3162   MPKI: 12.7607
L2C DATA PREFETCH MPKI: 0.00934
L2C INSTRUCTION PREFETCH MPKI: 12.7513
L2C WRITEBACK ACCESS:     254673  HIT:     233465  MISS:      21208  HIT %:    91.6725  MISS %:    8.32754   MPKI: 0.42416
L2C LOAD TRANSLATION ACCESS:     121770  HIT:      68962  MISS:      52808  HIT %:     56.633  MISS %:     43.367   MPKI: 1.05616
L2C TRANSLATION FROM L1D PREFETCHER ACCESS:      57623  HIT:      47179  MISS:      10444  HIT %:    81.8753  MISS %:    18.1247   MPKI: 0.20888
L2C PREFETCH  REQUESTED:       1700  ISSUED:       1700  USEFUL:      18490  USELESS:     630210
L2C USEFUL LOAD PREFETCHES:      18490 PREFETCH ISSUED TO LOWER LEVEL:     638049  ACCURACY: 2.8979
L2C TIMELY PREFETCHES:      18490 LATE PREFETCHES: 16 DROPPED PREFETCHES: 0
L2C PREFETCHES SAME FILL-ORIGIN LEVEL: 481 DIFFERENT FILL-ORIGIN LEVEL: 0
L2C AVERAGE MISS LATENCY: 38.6648 cycles
L2C RQ	ACCESS:    1035962	FORWARD:          0	MERGED:          0	TO_CACHE:    1035937
L2C WQ	ACCESS:     254673	FORWARD:         25	MERGED:          0	TO_CACHE:     254673
L2C PQ	ACCESS:    1859336	FORWARD:          0	MERGED:          0	TO_CACHE:    1859336

L2C Instructions Evicting Data 237782
L2C Translations Evicting Data 20421
L2C Data Evicting Data 121657
L2C Instructions Evicting Instructions 449540
L2C Translations Evicting Instructions 40051
L2C Data Evicting Instructions 224259
L2C Instructions Evicting Translations 39849
L2C Translations Evicting Translations 2780
L2C Data Evicting Translations 19467
L2C Dense regions hint from L2: 0
PSCL5 TOTAL     ACCESS:     134856  HIT:     134856  MISS:          0  HIT %:        100  MISS %:          0   MPKI: 0
PSCL5 LOAD TRANSLATION ACCESS:      92045  HIT:      92045  MISS:          0  HIT %:        100  MISS %:          0   MPKI: 0
PSCL5 TRANSLATION FROM L1D PREFETCHER ACCESS:      42811  HIT:      42811  MISS:          0  HIT %:        100  MISS %:          0   MPKI: 0
PSCL5 PREFETCH  REQUESTED:          0  ISSUED:          0  USEFUL:          0  USELESS:          0
PSCL5 USEFUL LOAD PREFETCHES:          0 PREFETCH ISSUED TO LOWER LEVEL:          0  ACCURACY: -nan
PSCL5 TIMELY PREFETCHES:          0 LATE PREFETCHES: 0 DROPPED PREFETCHES: 0
PSCL5 PREFETCHES SAME FILL-ORIGIN LEVEL: 0 DIFFERENT FILL-ORIGIN LEVEL: 0

PSCL4 TOTAL     ACCESS:     125953  HIT:     125603  MISS:        350  HIT %:    99.7221  MISS %:   0.277881   MPKI: 0.007
PSCL4 LOAD TRANSLATION ACCESS:      87855  HIT:      87505  MISS:        350  HIT %:    99.6016  MISS %:   0.398384   MPKI: 0.007
PSCL4 TRANSLATION FROM L1D PREFETCHER ACCESS:      38098  HIT:      38098  MISS:          0  HIT %:        100  MISS %:          0   MPKI: 0
PSCL4 PREFETCH  REQUESTED:          0  ISSUED:          0  USEFUL:          0  USELESS:          0
PSCL4 USEFUL LOAD PREFETCHES:          0 PREFETCH ISSUED TO LOWER LEVEL:          0  ACCURACY: -nan
PSCL4 TIMELY PREFETCHES:          0 LATE PREFETCHES: 0 DROPPED PREFETCHES: 0
PSCL4 PREFETCHES SAME FILL-ORIGIN LEVEL: 0 DIFFERENT FILL-ORIGIN LEVEL: 0

PSCL3 TOTAL     ACCESS:     132145  HIT:     131154  MISS:        991  HIT %:    99.2501  MISS %:   0.749934   MPKI: 0.01982
PSCL3 LOAD TRANSLATION ACCESS:      91819  HIT:      90828  MISS:        991  HIT %:    98.9207  MISS %:     1.0793   MPKI: 0.01982
PSCL3 TRANSLATION FROM L1D PREFETCHER ACCESS:      40326  HIT:      40326  MISS:          0  HIT %:        100  MISS %:          0   MPKI: 0
PSCL3 PREFETCH  REQUESTED:          0  ISSUED:          0  USEFUL:          0  USELESS:          0
PSCL3 USEFUL LOAD PREFETCHES:          0 PREFETCH ISSUED TO LOWER LEVEL:          0  ACCURACY: -nan
PSCL3 TIMELY PREFETCHES:          0 LATE PREFETCHES: 0 DROPPED PREFETCHES: 0
PSCL3 PREFETCHES SAME FILL-ORIGIN LEVEL: 0 DIFFERENT FILL-ORIGIN LEVEL: 0

PSCL2 TOTAL     ACCESS:     125632  HIT:      93433  MISS:      32199  HIT %:    74.3704  MISS %:    25.6296   MPKI: 0.64398
PSCL2 LOAD TRANSLATION ACCESS:      95581  HIT:      63382  MISS:      32199  HIT %:    66.3123  MISS %:    33.6877   MPKI: 0.64398
PSCL2 TRANSLATION FROM L1D PREFETCHER ACCESS:      30051  HIT:      30051  MISS:          0  HIT %:        100  MISS %:          0   MPKI: 0
PSCL2 PREFETCH  REQUESTED:          0  ISSUED:          0  USEFUL:          0  USELESS:          0
PSCL2 USEFUL LOAD PREFETCHES:          0 PREFETCH ISSUED TO LOWER LEVEL:          0  ACCURACY: -nan
PSCL2 TIMELY PREFETCHES:          0 LATE PREFETCHES: 0 DROPPED PREFETCHES: 0
PSCL2 PREFETCHES SAME FILL-ORIGIN LEVEL: 0 DIFFERENT FILL-ORIGIN LEVEL: 0

LLC TOTAL     ACCESS:    1288380  HIT:    1219721  MISS:      68659  HIT %:    94.6709  MISS %:     5.3291   MPKI: 1.37318
LLC LOAD      ACCESS:     405043  HIT:     353226  MISS:      51817  HIT %:     87.207  MISS %:     12.793   MPKI: 1.03634
LLC RFO       ACCESS:      49455  HIT:      37801  MISS:      11654  HIT %:    76.4351  MISS %:    23.5649   MPKI: 0.23308
LLC PREFETCH  ACCESS:     638049  HIT:     634524  MISS:       3525  HIT %:    99.4475  MISS %:   0.552465   MPKI: 0.0705
LLC WRITEBACK ACCESS:     132581  HIT:     132024  MISS:        557  HIT %:    99.5799  MISS %:   0.420121   MPKI: 0.01114
LLC LOAD TRANSLATION ACCESS:      52808  HIT:      51725  MISS:       1083  HIT %:    97.9492  MISS %:    2.05083   MPKI: 0.02166
LLC TRANSLATION FROM L1D PREFETCHER ACCESS:      10444  HIT:      10421  MISS:         23  HIT %:    99.7798  MISS %:   0.220222   MPKI: 0.00046
LLC PREFETCH  REQUESTED:          0  ISSUED:          0  USEFUL:        380  USELESS:       6867
LLC USEFUL LOAD PREFETCHES:        380 PREFETCH ISSUED TO LOWER LEVEL:       3525  ACCURACY: 10.7801
LLC TIMELY PREFETCHES:        380 LATE PREFETCHES: 0 DROPPED PREFETCHES: 0
LLC PREFETCHES SAME FILL-ORIGIN LEVEL: 0 DIFFERENT FILL-ORIGIN LEVEL: 0
LLC AVERAGE MISS LATENCY: 156.796 cycles
LLC RQ	ACCESS:     517756	FORWARD:          0	MERGED:          0	TO_CACHE:     517750
LLC WQ	ACCESS:     132581	FORWARD:          6	MERGED:          0	TO_CACHE:     132581
LLC PQ	ACCESS:     638049	FORWARD:          0	MERGED:          0	TO_CACHE:     638049

LLC Dense regions hint to LLC: 0

RAW hits: 1038803
Loads Generated: 11434630
Loads sent to L1D: 10395825
Stores Generated: 5225429
Stores sent to L1D: 5225435
Major fault: 0 Minor fault: 5918
Allocated PAGES: 5918
I-Shadow cache 408 bytes
Touched + WorthPF tables 6144 bytes 
MMA filter 174 bytes 
FNL filter 272 bytes 
TOTAL PREFETCHER STORAGE SIZE: 25174 bytes
CPU 0 L1I next line prefetcher final stats
[Bingo] PHT Access: 770
[Bingo] PHT Hit PC+Addr: 609
[Bingo] PHT Hit PC+Offs: 9
[Bingo] PHT Miss: 152
[Bingo] Prefetch PC+Addr: 0
[Bingo] Prefetch PC+Offs: 0
[Bingo] Useful PC+Addr: 0
[Bingo] Useful PC+Offs: 0
[Bingo] Useless PC+Addr: 0
[Bingo] Useless PC+Offs: 0
[Bingo] L1 Prefetch per Region: 0
[Bingo] L2 Prefetch per Region: 3.75081
[Bingo] L3 Prefetch per Region: 0
[Bingo] No Prefetch per Region: 28.2492
[Bingo] Number of Voters Mean: 1
[Bingo] Number of Voters SD: 100.274
PHT read accesses: 3627
PHT write accesses: 316
AT read accesses: 681
AT write accesses: 560
FT read accesses: 2426
FT write accesses: 770
PS read accesses: 1237
PS write accesses: 618
PHT tag read accesses: 9315
PHT tag write accesses: 925
AT tag read accesses: 18866569
AT tag write accesses: 875
FT tag read accesses: 18874359
FT tag write accesses: 2394
PS tag read accesses: 48657
PS tag write accesses: 1854

DRAM Statistics
 CHANNEL 0
 RQ ROW_BUFFER_HIT:       9719  ROW_BUFFER_MISS:      58382
 DBUS_CONGESTED:         36
 WQ ROW_BUFFER_HIT:       9832  ROW_BUFFER_MISS:      43416  FULL:          0

 AVG_CONGESTED_CYCLE: 4
 All warmup complete: 2
Channel 0 Bank busy for read cycles: 0
Channel 0 Bank busy for write cycles: 0
Channel 0
Rank 0
0banks busy for read cycles: 58074531
0banks busy for write cycles: 25387
1banks busy for read cycles: 5659568
1banks busy for write cycles: 3426966
2banks busy for read cycles: 1115950
2banks busy for write cycles: 1071037
3banks busy for read cycles: 210907
3banks busy for write cycles: 340994
4banks busy for read cycles: 69551
4banks busy for write cycles: 159862
5banks busy for read cycles: 28032
5banks busy for write cycles: 101694
6banks busy for read cycles: 20743
6banks busy for write cycles: 79801
7banks busy for read cycles: 12183
7banks busy for write cycles: 84377
8banks busy for read cycles: 11458
8banks busy for write cycles: 114762

CPU 0 Branch Prediction Accuracy: 99.4607% MPKI: 1.00288 Average ROB Occupancy at Mispredict: 63.2545
Branch types
NOT_BRANCH: 40700943 81.4019%
BRANCH_DIRECT_JUMP: 469808 0.939616%
BRANCH_INDIRECT: 153732 0.307464%
BRANCH_CONDITIONAL: 6944056 13.8881%
BRANCH_DIRECT_CALL: 679877 1.35975%
BRANCH_INDIRECT_CALL: 168745 0.33749%
BRANCH_RETURN: 882491 1.76498%
BRANCH_OTHER: 0 0%

DRAM PAGES: 1048576
Allocated PAGES: 5918
