
*** ChampSim Multicore Out-of-Order Simulator ***

Warmup Instructions: 50000000
Simulation Instructions: 50000000
Number of CPUs: 1
LLC sets: 2048
LLC ways: 16
Off-chip DRAM Size: 4096 MB Channels: 1 Width: 64-bit Data Rate: 6400 MT/s
CPU 0 runs ../IPC-traces//server_029.champsimtrace.xz
.xz
NUM_OF_IPS_IN_CRITICAL_IP_TRAINING: 64
NUM_OF_CRITICAL_IP_TRAINING_TABLE_WAYS: 2
NUM_OF_CRITICAL_IP_TRAINING_TABLE_SETS: 32
WOBBLY_CRITICAL_IP_CACHE_SETS: 32
WOBBLY_CRITICAL_IP_CACHE_WAYS: 4
BTB has LRU replacement policy
ITLB has LRU replacement policy
DTLB has LRU replacement policy
STLB has LRU replacement policy
CPU 0 L1I next line prefetcher
L1I has LRU replacement policy
IP Table Entries: 256
L1D has LRU replacement policy
Initialize SRRIP state for L2C
Initialize DRRIP state for LLC
Heartbeat CPU 0 instructions: 10000003 cycles: 2882165 heartbeat IPC: 3.46961 cumulative IPC: 3.46961 (Simulation time: 0 hr 4 min 2 sec) 
Heartbeat CPU 0 instructions: 20000001 cycles: 5759479 heartbeat IPC: 3.47546 cumulative IPC: 3.47254 (Simulation time: 0 hr 7 min 19 sec) 
Heartbeat CPU 0 instructions: 30000000 cycles: 8637117 heartbeat IPC: 3.47507 cumulative IPC: 3.47338 (Simulation time: 0 hr 10 min 15 sec) 
Heartbeat CPU 0 instructions: 40000000 cycles: 11518366 heartbeat IPC: 3.47072 cumulative IPC: 3.47271 (Simulation time: 0 hr 12 min 56 sec) 
Heartbeat CPU 0 instructions: 50000002 cycles: 14398878 heartbeat IPC: 3.47161 cumulative IPC: 3.47249 (Simulation time: 0 hr 15 min 31 sec) 

Warmup complete CPU 0 instructions: 50000002 cycles: 14398878 (Simulation time: 0 hr 15 min 31 sec) 

% increase in all ip prefetch 425.003
% increase in all ip prefetch 0.354806
Heartbeat CPU 0 instructions: 60000000 cycles: 30826311 heartbeat IPC: 0.608738 cumulative IPC: 0.608738 (Simulation time: 0 hr 18 min 4 sec) 
Heartbeat CPU 0 instructions: 70000000 cycles: 47322764 heartbeat IPC: 0.606191 cumulative IPC: 0.607462 (Simulation time: 0 hr 20 min 34 sec) 
Heartbeat CPU 0 instructions: 80000002 cycles: 63680036 heartbeat IPC: 0.611349 cumulative IPC: 0.608752 (Simulation time: 0 hr 23 min 3 sec) 
*** Reached end of trace for Core: 0 Repeating trace: ../IPC-traces//server_029.champsimtrace.xz
Heartbeat CPU 0 instructions: 90000000 cycles: 79870401 heartbeat IPC: 0.617651 cumulative IPC: 0.610953 (Simulation time: 0 hr 25 min 33 sec) 
Heartbeat CPU 0 instructions: 100000001 cycles: 95979745 heartbeat IPC: 0.620758 cumulative IPC: 0.612889 (Simulation time: 0 hr 28 min 51 sec) 
Finished CPU 0 instructions: 50000002 cycles: 81580868 cumulative IPC: 0.612889 (Simulation time: 0 hr 28 min 51 sec) 

ChampSim completed all CPUs

Region of Interest Statistics

CPU 0 cumulative IPC: 0.612889 instructions: 50000002 cycles: 81580868

CPU 0 Average Load ROB stall cycles: 1.97122e+07
CPU 0 Fraction of times ROB stalled by Loads: 35.661
CPU 0 Percentage of Load stall cycles in Total stall cycles: 2.69621e+08
Issued all: 28152901
Issued LT all: 22234539
rob_not_full_when_issued_lt_all: 22107814
Issued LT one: 17344689
rob_not_full_when_issued_lt_one: 17235305
 Total stall cycles: 69194267
 Total load stall cycles: 186562402921910
CPU 0 NUM of IPS identified critical: 0
CPU 0 Num of Load IPs stalling ROB: 10058
Threshold modification factor: -1
Max PIST entries: 64
Min PIST entries: 0
Avg PIST entries: 32
Trouble in retire width: 0.890424
MaC = Marked as critical.
lt_50_percent_before_Mac: 0
gt_90_percent_before_Mac: 0
gt_75_percent_before_Mac: 0
gt_50_percent_before_Mac: 0
stall_proportion_bin_same_before_after: 0
stall_proportion_bin_lower_before_after: 0
stall_proportion_bin_upper_before_after: 0
average_stall_proportion_before: -nan
average_stall_proportion_after: -nan
Critical IP stalls, total frequency: 0
Non-critical IP stalls, total frequency: 3375068
Total Freq all stalling IPs: 3375068
stat_90_percent_critical_ip_stalls_freq: 3037851
stat_90_percent_non_critical_ip_stalls_freq: 337217
Critical_IP_ROB_Stalls_Bucket_0: 0
Non-critical_IP_ROB_Stalls_Bucket_0: 2347489
Critical_IP_ROB_Stalls_Bucket_1: 0
Non-critical_IP_ROB_Stalls_Bucket_1: 688996
Critical_IP_ROB_Stalls_Bucket_2: 0
Non-critical_IP_ROB_Stalls_Bucket_2: 238001
Critical_IP_ROB_Stalls_Bucket_3: 0
Non-critical_IP_ROB_Stalls_Bucket_3: 63011
Critical_IP_ROB_Stalls_Bucket_4: 0
Non-critical_IP_ROB_Stalls_Bucket_4: 23632
Critical_IP_ROB_Stalls_Bucket_5: 0
Non-critical_IP_ROB_Stalls_Bucket_5: 7832
Critical_IP_ROB_Stalls_Bucket_6: 0
Non-critical_IP_ROB_Stalls_Bucket_6: 6107
0 => IPs accounting for >50 percent of stalls, 1 => 55, 2 => 60, 3 => 65 and so on till 90.
percent50: 50.0352 num IPs:  428
percent55: 55.0224 num IPs: 611
percent60: 60.0178 num IPs: 821
percent65: 65.0033 num IPs: 1035
percent70: 70.0039 num IPs: 1255
percent75: 75.0182 num IPs: 1476
percent80: 80.0134 num IPs: 1699
percent85: 85.0177 num IPs: 1931
percent90: 90.0091 num IPs: 2195
Critical_ROB_Stalls_Percent_0_Bucket_0: 1009436
Non-critical_ROB_Stalls_Percent_0_Bucket_0: 1338053
Critical_ROB_Stalls_Percent_0_Bucket_1: 416735
Non-critical_ROB_Stalls_Percent_0_Bucket_1: 272261
Critical_ROB_Stalls_Percent_0_Bucket_2: 175881
Non-critical_ROB_Stalls_Percent_0_Bucket_2: 62120
Critical_ROB_Stalls_Percent_0_Bucket_3: 54321
Non-critical_ROB_Stalls_Percent_0_Bucket_3: 8690
Critical_ROB_Stalls_Percent_0_Bucket_4: 20104
Non-critical_ROB_Stalls_Percent_0_Bucket_4: 3528
Critical_ROB_Stalls_Percent_0_Bucket_5: 6764
Non-critical_ROB_Stalls_Percent_0_Bucket_5: 1068
Critical_ROB_Stalls_Percent_0_Bucket_6: 5480
Non-critical_ROB_Stalls_Percent_0_Bucket_6: 627
Critical_ROB_Stalls_Percent_1_Bucket_0: 1133776
Non-critical_ROB_Stalls_Percent_1_Bucket_0: 1213713
Critical_ROB_Stalls_Percent_1_Bucket_1: 449292
Non-critical_ROB_Stalls_Percent_1_Bucket_1: 239704
Critical_ROB_Stalls_Percent_1_Bucket_2: 184180
Non-critical_ROB_Stalls_Percent_1_Bucket_2: 53821
Critical_ROB_Stalls_Percent_1_Bucket_3: 56256
Non-critical_ROB_Stalls_Percent_1_Bucket_3: 6755
Critical_ROB_Stalls_Percent_1_Bucket_4: 21246
Non-critical_ROB_Stalls_Percent_1_Bucket_4: 2386
Critical_ROB_Stalls_Percent_1_Bucket_5: 6806
Non-critical_ROB_Stalls_Percent_1_Bucket_5: 1026
Critical_ROB_Stalls_Percent_1_Bucket_6: 5485
Non-critical_ROB_Stalls_Percent_1_Bucket_6: 622
Critical_ROB_Stalls_Percent_2_Bucket_0: 1240808
Non-critical_ROB_Stalls_Percent_2_Bucket_0: 1106681
Critical_ROB_Stalls_Percent_2_Bucket_1: 497289
Non-critical_ROB_Stalls_Percent_2_Bucket_1: 191707
Critical_ROB_Stalls_Percent_2_Bucket_2: 196150
Non-critical_ROB_Stalls_Percent_2_Bucket_2: 41851
Critical_ROB_Stalls_Percent_2_Bucket_3: 57772
Non-critical_ROB_Stalls_Percent_2_Bucket_3: 5239
Critical_ROB_Stalls_Percent_2_Bucket_4: 21330
Non-critical_ROB_Stalls_Percent_2_Bucket_4: 2302
Critical_ROB_Stalls_Percent_2_Bucket_5: 6806
Non-critical_ROB_Stalls_Percent_2_Bucket_5: 1026
Critical_ROB_Stalls_Percent_2_Bucket_6: 5485
Non-critical_ROB_Stalls_Percent_2_Bucket_6: 622
Critical_ROB_Stalls_Percent_3_Bucket_0: 1367807
Non-critical_ROB_Stalls_Percent_3_Bucket_0: 979682
Critical_ROB_Stalls_Percent_3_Bucket_1: 529168
Non-critical_ROB_Stalls_Percent_3_Bucket_1: 159828
Critical_ROB_Stalls_Percent_3_Bucket_2: 205031
Non-critical_ROB_Stalls_Percent_3_Bucket_2: 32970
Critical_ROB_Stalls_Percent_3_Bucket_3: 57939
Non-critical_ROB_Stalls_Percent_3_Bucket_3: 5072
Critical_ROB_Stalls_Percent_3_Bucket_4: 21663
Non-critical_ROB_Stalls_Percent_3_Bucket_4: 1969
Critical_ROB_Stalls_Percent_3_Bucket_5: 6813
Non-critical_ROB_Stalls_Percent_3_Bucket_5: 1019
Critical_ROB_Stalls_Percent_3_Bucket_6: 5485
Non-critical_ROB_Stalls_Percent_3_Bucket_6: 622
Critical_ROB_Stalls_Percent_4_Bucket_0: 1503445
Non-critical_ROB_Stalls_Percent_4_Bucket_0: 844044
Critical_ROB_Stalls_Percent_4_Bucket_1: 558368
Non-critical_ROB_Stalls_Percent_4_Bucket_1: 130628
Critical_ROB_Stalls_Percent_4_Bucket_2: 208911
Non-critical_ROB_Stalls_Percent_4_Bucket_2: 29090
Critical_ROB_Stalls_Percent_4_Bucket_3: 57980
Non-critical_ROB_Stalls_Percent_4_Bucket_3: 5031
Critical_ROB_Stalls_Percent_4_Bucket_4: 21663
Non-critical_ROB_Stalls_Percent_4_Bucket_4: 1969
Critical_ROB_Stalls_Percent_4_Bucket_5: 6813
Non-critical_ROB_Stalls_Percent_4_Bucket_5: 1019
Critical_ROB_Stalls_Percent_4_Bucket_6: 5485
Non-critical_ROB_Stalls_Percent_4_Bucket_6: 622
Critical_ROB_Stalls_Percent_5_Bucket_0: 1638646
Non-critical_ROB_Stalls_Percent_5_Bucket_0: 708843
Critical_ROB_Stalls_Percent_5_Bucket_1: 584724
Non-critical_ROB_Stalls_Percent_5_Bucket_1: 104272
Critical_ROB_Stalls_Percent_5_Bucket_2: 216277
Non-critical_ROB_Stalls_Percent_5_Bucket_2: 21724
Critical_ROB_Stalls_Percent_5_Bucket_3: 58282
Non-critical_ROB_Stalls_Percent_5_Bucket_3: 4729
Critical_ROB_Stalls_Percent_5_Bucket_4: 21663
Non-critical_ROB_Stalls_Percent_5_Bucket_4: 1969
Critical_ROB_Stalls_Percent_5_Bucket_5: 6813
Non-critical_ROB_Stalls_Percent_5_Bucket_5: 1019
Critical_ROB_Stalls_Percent_5_Bucket_6: 5485
Non-critical_ROB_Stalls_Percent_5_Bucket_6: 622
Critical_ROB_Stalls_Percent_6_Bucket_0: 1783879
Non-critical_ROB_Stalls_Percent_6_Bucket_0: 563610
Critical_ROB_Stalls_Percent_6_Bucket_1: 603185
Non-critical_ROB_Stalls_Percent_6_Bucket_1: 85811
Critical_ROB_Stalls_Percent_6_Bucket_2: 220767
Non-critical_ROB_Stalls_Percent_6_Bucket_2: 17234
Critical_ROB_Stalls_Percent_6_Bucket_3: 58612
Non-critical_ROB_Stalls_Percent_6_Bucket_3: 4399
Critical_ROB_Stalls_Percent_6_Bucket_4: 21730
Non-critical_ROB_Stalls_Percent_6_Bucket_4: 1902
Critical_ROB_Stalls_Percent_6_Bucket_5: 6824
Non-critical_ROB_Stalls_Percent_6_Bucket_5: 1008
Critical_ROB_Stalls_Percent_6_Bucket_6: 5490
Non-critical_ROB_Stalls_Percent_6_Bucket_6: 617
Critical_ROB_Stalls_Percent_7_Bucket_0: 1935311
Non-critical_ROB_Stalls_Percent_7_Bucket_0: 412178
Critical_ROB_Stalls_Percent_7_Bucket_1: 617593
Non-critical_ROB_Stalls_Percent_7_Bucket_1: 71403
Critical_ROB_Stalls_Percent_7_Bucket_2: 223753
Non-critical_ROB_Stalls_Percent_7_Bucket_2: 14248
Critical_ROB_Stalls_Percent_7_Bucket_3: 58654
Non-critical_ROB_Stalls_Percent_7_Bucket_3: 4357
Critical_ROB_Stalls_Percent_7_Bucket_4: 21743
Non-critical_ROB_Stalls_Percent_7_Bucket_4: 1889
Critical_ROB_Stalls_Percent_7_Bucket_5: 6824
Non-critical_ROB_Stalls_Percent_7_Bucket_5: 1008
Critical_ROB_Stalls_Percent_7_Bucket_6: 5508
Non-critical_ROB_Stalls_Percent_7_Bucket_6: 599
Critical_ROB_Stalls_Percent_8_Bucket_0: 2081777
Non-critical_ROB_Stalls_Percent_8_Bucket_0: 265712
Critical_ROB_Stalls_Percent_8_Bucket_1: 634734
Non-critical_ROB_Stalls_Percent_8_Bucket_1: 54262
Critical_ROB_Stalls_Percent_8_Bucket_2: 226276
Non-critical_ROB_Stalls_Percent_8_Bucket_2: 11725
Critical_ROB_Stalls_Percent_8_Bucket_3: 59737
Non-critical_ROB_Stalls_Percent_8_Bucket_3: 3274
Critical_ROB_Stalls_Percent_8_Bucket_4: 22301
Non-critical_ROB_Stalls_Percent_8_Bucket_4: 1331
Critical_ROB_Stalls_Percent_8_Bucket_5: 7399
Non-critical_ROB_Stalls_Percent_8_Bucket_5: 433
Critical_ROB_Stalls_Percent_8_Bucket_6: 5627
Non-critical_ROB_Stalls_Percent_8_Bucket_6: 480
Average ROB occupancy Load Stall Begin: 37.2179
Average ROB occupancy Load Stall End: 45.9749
Min ROB occupancy Load Stall Begin: 1
Max ROB occupancy Load Stall Begin: 352
Min ROB occupancy Load Stall End: 1
Max ROB occupancy Load Stall End: 352
Average ROB occupancy Critical Load Stall Begin: -nan
Average ROB occupancy Critical Load Stall End: -nan
Min ROB occupancy Critical Load Stall Begin: 400
Max ROB occupancy Critical Load Stall Begin: 0
Min ROB occupancy Critical Load Stall End: 400
Max ROB occupancy Critical Load Stall End: 0
 ROB Load Stall Begin Bucket Count 0: 2608865
 ROB Load Stall End Bucket Count 0: 2347489
 ROB Critical Load Stall Begin Bucket Count 0: 0
 ROB Critical Load Stall End Bucket Count 0: 0
 ROB Load Stall Begin Bucket Count 1: 504757
 ROB Load Stall End Bucket Count 1: 688996
 ROB Critical Load Stall Begin Bucket Count 1: 0
 ROB Critical Load Stall End Bucket Count 1: 0
 ROB Load Stall Begin Bucket Count 2: 181664
 ROB Load Stall End Bucket Count 2: 238001
 ROB Critical Load Stall Begin Bucket Count 2: 0
 ROB Critical Load Stall End Bucket Count 2: 0
 ROB Load Stall Begin Bucket Count 3: 50008
 ROB Load Stall End Bucket Count 3: 63011
 ROB Critical Load Stall Begin Bucket Count 3: 0
 ROB Critical Load Stall End Bucket Count 3: 0
 ROB Load Stall Begin Bucket Count 4: 18288
 ROB Load Stall End Bucket Count 4: 23632
 ROB Critical Load Stall Begin Bucket Count 4: 0
 ROB Critical Load Stall End Bucket Count 4: 0
 ROB Load Stall Begin Bucket Count 5: 6178
 ROB Load Stall End Bucket Count 5: 7832
 ROB Critical Load Stall Begin Bucket Count 5: 0
 ROB Critical Load Stall End Bucket Count 5: 0
 ROB Load Stall Begin Bucket Count 6: 5308
 ROB Load Stall End Bucket Count 6: 6107
 ROB Critical Load Stall Begin Bucket Count 6: 0
 ROB Critical Load Stall End Bucket Count 6: 0
PIST Tag Read Accesses: 2441940
PIST Read Accesses: 1220970
PIST Tag Write Accesses: 2441940
PIST Write Accesses: 1220970
Criticality detector called times: 3295010
Max global_stall_cycles_count: 2143237
Threshold Modified: 1 times, factor: -1
Sturdy critical IP cache stats: 
 Unused entries: 0
CIC Tag Read Accesses: 0
CIC Read Accesses: 0
CIC Tag Write Accesses: 0
CIC Write Accesses: 0
Wobbly critical IP cache stats: 
 Unused entries: 123
CIC Tag Read Accesses: 82822683
CIC Read Accesses: 0
CIC Tag Write Accesses: 5
CIC Write Accesses: 0
ITLB TOTAL     ACCESS:   10476321  HIT:    9721586  MISS:     754735  HIT %:    92.7958  MISS %:     7.2042   MPKI: 15.0947
ITLB LOAD TRANSLATION ACCESS:    8326521  HIT:    8279901  MISS:      46620  HIT %:    99.4401  MISS %:   0.559898   MPKI: 0.9324
ITLB TRANSLATION FROM L1D PREFETCHER ACCESS:    2149800  HIT:    1441685  MISS:     708115  HIT %:    67.0614  MISS %:    32.9386   MPKI: 14.1623
ITLB PREFETCH  REQUESTED:          0  ISSUED:          0  USEFUL:     560109  USELESS:     148004
ITLB USEFUL LOAD PREFETCHES:     560109 PREFETCH ISSUED TO LOWER LEVEL:          0  ACCURACY: inf
ITLB TIMELY PREFETCHES:     560109 LATE PREFETCHES: 40 DROPPED PREFETCHES: 5333
ITLB PREFETCHES SAME FILL-ORIGIN LEVEL: 0 DIFFERENT FILL-ORIGIN LEVEL: 0
ITLB AVERAGE MISS LATENCY: 2558.39 cycles
ITLB RQ	ACCESS:   15832839	FORWARD:          0	MERGED:    5308812	TO_CACHE:   10524027

DTLB TOTAL     ACCESS:   11131113  HIT:   10586971  MISS:     544142  HIT %:    95.1115  MISS %:    4.88848   MPKI: 10.8828
DTLB LOAD TRANSLATION ACCESS:   11131113  HIT:   10586971  MISS:     544142  HIT %:    95.1115  MISS %:    4.88848   MPKI: 10.8828
DTLB PREFETCH  REQUESTED:          0  ISSUED:          0  USEFUL:          0  USELESS:          0
DTLB USEFUL LOAD PREFETCHES:          0 PREFETCH ISSUED TO LOWER LEVEL:          0  ACCURACY: -nan
DTLB TIMELY PREFETCHES:          0 LATE PREFETCHES: 0 DROPPED PREFETCHES: 0
DTLB PREFETCHES SAME FILL-ORIGIN LEVEL: 0 DIFFERENT FILL-ORIGIN LEVEL: 0
DTLB AVERAGE MISS LATENCY: 11.1062 cycles
DTLB RQ	ACCESS:   14624863	FORWARD:          0	MERGED:    3466466	TO_CACHE:   11158397

STLB TOTAL     ACCESS:    1326520  HIT:    1311286  MISS:      15234  HIT %:    98.8516  MISS %:    1.14842   MPKI: 0.30468
STLB LOAD TRANSLATION ACCESS:     590722  HIT:     577286  MISS:      13436  HIT %:    97.7255  MISS %:     2.2745   MPKI: 0.26872
STLB TRANSLATION FROM L1D PREFETCHER ACCESS:     735798  HIT:     734000  MISS:       1798  HIT %:    99.7556  MISS %:   0.244361   MPKI: 0.03596
STLB PREFETCH  REQUESTED:          0  ISSUED:          0  USEFUL:       1633  USELESS:        171
STLB USEFUL LOAD PREFETCHES:       1633 PREFETCH ISSUED TO LOWER LEVEL:          0  ACCURACY: inf
STLB TIMELY PREFETCHES:       1633 LATE PREFETCHES: 0 DROPPED PREFETCHES: 5333
STLB PREFETCHES SAME FILL-ORIGIN LEVEL: 0 DIFFERENT FILL-ORIGIN LEVEL: 0
STLB AVERAGE MISS LATENCY: 80.6586 cycles
STLB RQ	ACCESS:    1352987	FORWARD:          0	MERGED:      21134	TO_CACHE:    1331853

STLB Hit, L1D data hit: 0
STLB Hit, L2C data hit: 0
STLB Hit, LLC data hit: 0
STLB Hit, LLC data miss: 0
STLB STLB hints to L2: 0
L1D TOTAL     ACCESS:   14126409  HIT:   12639466  MISS:    1486943  HIT %:     89.474  MISS %:     10.526   MPKI: 29.7389
L1D LOAD      ACCESS:    7880697  HIT:    6736069  MISS:    1144628  HIT %:    85.4755  MISS %:    14.5245   MPKI: 22.8926
L1D RFO       ACCESS:    6201596  HIT:    5891305  MISS:     310291  HIT %:    94.9966  MISS %:    5.00341   MPKI: 6.20582
L1D PREFETCH  ACCESS:      44116  HIT:      12092  MISS:      32024  HIT %:    27.4096  MISS %:    72.5904   MPKI: 0.64048
L1D PREFETCH  REQUESTED:      97592  ISSUED:      97565  USEFUL:      11298  USELESS:      20783
L1D USEFUL LOAD PREFETCHES:      11298 PREFETCH ISSUED TO LOWER LEVEL:      35221  ACCURACY: 32.0775
L1D TIMELY PREFETCHES:      11298 LATE PREFETCHES: 3173 DROPPED PREFETCHES: 0
L1D PREFETCHES SAME FILL-ORIGIN LEVEL: 35221 DIFFERENT FILL-ORIGIN LEVEL: 0
L1D AVERAGE MISS LATENCY: 51204.8 cycles
L1D RQ	ACCESS:   11230019	FORWARD:          0	MERGED:    3158879	TO_CACHE:    7923753
L1D WQ	ACCESS:    6772786	FORWARD:     147396	MERGED:      71676	TO_CACHE:    6701110
L1D PQ	ACCESS:      48787	FORWARD:          0	MERGED:          0	TO_CACHE:      48778

L1D UNIQUE REGIONS ACCESSED: 0
L1D REGIONS CONFLICTS: 0
L1D Cross Page Prefetch Requests: 0
L1D Same Page Prefetch Requests: 890635
L1D ROI Sum of L1D PQ occupancy: 636478
L1D PREFETCHES PUSHED FROM L2C: 0
L1I TOTAL     ACCESS:   15753322  HIT:   11513430  MISS:    4239892  HIT %:    73.0857  MISS %:    26.9143   MPKI: 84.7978
L1I LOAD      ACCESS:    9773910  HIT:    9702071  MISS:      71839  HIT %:     99.265  MISS %:   0.735008   MPKI: 1.43678
L1I PREFETCH  ACCESS:    5979412  HIT:    1811359  MISS:    4168053  HIT %:    30.2933  MISS %:    69.7067   MPKI: 83.3611
L1I PREFETCH  REQUESTED:    6192000  ISSUED:    6180350  USEFUL:    2965327  USELESS:    1202764
L1I USEFUL LOAD PREFETCHES:    2965327 PREFETCH ISSUED TO LOWER LEVEL:    4180622  ACCURACY: 70.9303
L1I TIMELY PREFETCHES:    2965327 LATE PREFETCHES: 12569 DROPPED PREFETCHES: 11634
L1I PREFETCHES SAME FILL-ORIGIN LEVEL: 4180622 DIFFERENT FILL-ORIGIN LEVEL: 0
L1I AVERAGE MISS LATENCY: 160967 cycles
L1I RQ	ACCESS:   13576076	FORWARD:          0	MERGED:    3793960	TO_CACHE:    9782116
L1I PQ	ACCESS:    6180350	FORWARD:          0	MERGED:     129627	TO_CACHE:    6050723

BTB TOTAL     ACCESS:    6128543  HIT:    4286212  MISS:    1842331  HIT %:    69.9385  MISS %:    30.0615   MPKI: 36.8466
BTB BRANCH_DIRECT_JUMP	ACCESS:     525208  HIT:     377778  MISS:     147430
BTB BRANCH_INDIRECT	ACCESS:     166358  HIT:     130843  MISS:      35515
BTB BRANCH_CONDITIONAL	ACCESS:    3088483  HIT:    2580548  MISS:     507935
BTB BRANCH_DIRECT_CALL	ACCESS:     989261  HIT:     628303  MISS:     360958
BTB BRANCH_INDIRECT_CALL	ACCESS:     184984  HIT:     116407  MISS:      68577
BTB BRANCH_RETURN	ACCESS:    1174249  HIT:     452333  MISS:     721916
BTB BRANCH_OTHER ACCESS:          0  HIT:          0  MISS:          0

L2C TOTAL     ACCESS:    6402834  HIT:    5896342  MISS:     506492  HIT %:    92.0896  MISS %:    7.91043   MPKI: 10.1298
L2C LOAD      ACCESS:    1200723  HIT:    1045381  MISS:     155342  HIT %:    87.0626  MISS %:    12.9374   MPKI: 3.10684
L2C DATA LOAD MPKI: 2.94966
L2C INSTRUCTION LOAD MPKI: 0.15718
L2C RFO       ACCESS:     310266  HIT:     274329  MISS:      35937  HIT %:    88.4174  MISS %:    11.5826   MPKI: 0.71874
L2C PREFETCH  ACCESS:    4265985  HIT:    3979906  MISS:     286079  HIT %:     93.294  MISS %:    6.70605   MPKI: 5.72158
L2C DATA PREFETCH MPKI: 0.46622
L2C INSTRUCTION PREFETCH MPKI: 5.25536
L2C WRITEBACK ACCESS:     594549  HIT:     577302  MISS:      17247  HIT %:    97.0991  MISS %:    2.90085   MPKI: 0.34494
L2C LOAD TRANSLATION ACCESS:      20216  HIT:       9098  MISS:      11118  HIT %:     45.004  MISS %:     54.996   MPKI: 0.22236
L2C TRANSLATION FROM L1D PREFETCHER ACCESS:      11095  HIT:      10326  MISS:        769  HIT %:    93.0689  MISS %:    6.93105   MPKI: 0.01538
L2C PREFETCH  REQUESTED:      73819  ISSUED:      73819  USEFUL:       3388  USELESS:     285207
L2C USEFUL LOAD PREFETCHES:       3388 PREFETCH ISSUED TO LOWER LEVEL:     286258  ACCURACY: 1.18355
L2C TIMELY PREFETCHES:       3388 LATE PREFETCHES: 179 DROPPED PREFETCHES: 0
L2C PREFETCHES SAME FILL-ORIGIN LEVEL: 7718 DIFFERENT FILL-ORIGIN LEVEL: 0
L2C AVERAGE MISS LATENCY: 41.2592 cycles
L2C RQ	ACCESS:    1542303	FORWARD:          0	MERGED:          0	TO_CACHE:    1542300
L2C WQ	ACCESS:     594549	FORWARD:          3	MERGED:          0	TO_CACHE:     594549
L2C PQ	ACCESS:    4289662	FORWARD:          0	MERGED:      22051	TO_CACHE:    4267611

L2C Instructions Evicting Data 104865
L2C Translations Evicting Data 7764
L2C Data Evicting Data 104188
L2C Instructions Evicting Instructions 162216
L2C Translations Evicting Instructions 3220
L2C Data Evicting Instructions 95373
L2C Instructions Evicting Translations 3546
L2C Translations Evicting Translations 903
L2C Data Evicting Translations 7170
L2C Dense regions hint from L2: 0
PSCL5 TOTAL     ACCESS:      20567  HIT:      20567  MISS:          0  HIT %:        100  MISS %:          0   MPKI: 0
PSCL5 LOAD TRANSLATION ACCESS:      13436  HIT:      13436  MISS:          0  HIT %:        100  MISS %:          0   MPKI: 0
PSCL5 TRANSLATION FROM L1D PREFETCHER ACCESS:       7131  HIT:       7131  MISS:          0  HIT %:        100  MISS %:          0   MPKI: 0
PSCL5 PREFETCH  REQUESTED:          0  ISSUED:          0  USEFUL:          0  USELESS:          0
PSCL5 USEFUL LOAD PREFETCHES:          0 PREFETCH ISSUED TO LOWER LEVEL:          0  ACCURACY: -nan
PSCL5 TIMELY PREFETCHES:          0 LATE PREFETCHES: 0 DROPPED PREFETCHES: 0
PSCL5 PREFETCHES SAME FILL-ORIGIN LEVEL: 0 DIFFERENT FILL-ORIGIN LEVEL: 0

PSCL4 TOTAL     ACCESS:      19921  HIT:      19750  MISS:        171  HIT %:    99.1416  MISS %:   0.858391   MPKI: 0.00342
PSCL4 LOAD TRANSLATION ACCESS:      12902  HIT:      12731  MISS:        171  HIT %:    98.6746  MISS %:    1.32538   MPKI: 0.00342
PSCL4 TRANSLATION FROM L1D PREFETCHER ACCESS:       7019  HIT:       7019  MISS:          0  HIT %:        100  MISS %:          0   MPKI: 0
PSCL4 PREFETCH  REQUESTED:          0  ISSUED:          0  USEFUL:          0  USELESS:          0
PSCL4 USEFUL LOAD PREFETCHES:          0 PREFETCH ISSUED TO LOWER LEVEL:          0  ACCURACY: -nan
PSCL4 TIMELY PREFETCHES:          0 LATE PREFETCHES: 0 DROPPED PREFETCHES: 0
PSCL4 PREFETCHES SAME FILL-ORIGIN LEVEL: 0 DIFFERENT FILL-ORIGIN LEVEL: 0

PSCL3 TOTAL     ACCESS:      20466  HIT:      20294  MISS:        172  HIT %:    99.1596  MISS %:   0.840418   MPKI: 0.00344
PSCL3 LOAD TRANSLATION ACCESS:      13447  HIT:      13275  MISS:        172  HIT %:    98.7209  MISS %:     1.2791   MPKI: 0.00344
PSCL3 TRANSLATION FROM L1D PREFETCHER ACCESS:       7019  HIT:       7019  MISS:          0  HIT %:        100  MISS %:          0   MPKI: 0
PSCL3 PREFETCH  REQUESTED:          0  ISSUED:          0  USEFUL:          0  USELESS:          0
PSCL3 USEFUL LOAD PREFETCHES:          0 PREFETCH ISSUED TO LOWER LEVEL:          0  ACCURACY: -nan
PSCL3 TIMELY PREFETCHES:          0 LATE PREFETCHES: 0 DROPPED PREFETCHES: 0
PSCL3 PREFETCHES SAME FILL-ORIGIN LEVEL: 0 DIFFERENT FILL-ORIGIN LEVEL: 0

PSCL2 TOTAL     ACCESS:      17535  HIT:      10253  MISS:       7282  HIT %:    58.4716  MISS %:    41.5284   MPKI: 0.14564
PSCL2 LOAD TRANSLATION ACCESS:      14206  HIT:       6924  MISS:       7282  HIT %:      48.74  MISS %:      51.26   MPKI: 0.14564
PSCL2 TRANSLATION FROM L1D PREFETCHER ACCESS:       3329  HIT:       3329  MISS:          0  HIT %:        100  MISS %:          0   MPKI: 0
PSCL2 PREFETCH  REQUESTED:          0  ISSUED:          0  USEFUL:          0  USELESS:          0
PSCL2 USEFUL LOAD PREFETCHES:          0 PREFETCH ISSUED TO LOWER LEVEL:          0  ACCURACY: -nan
PSCL2 TIMELY PREFETCHES:          0 LATE PREFETCHES: 0 DROPPED PREFETCHES: 0
PSCL2 PREFETCHES SAME FILL-ORIGIN LEVEL: 0 DIFFERENT FILL-ORIGIN LEVEL: 0

LLC TOTAL     ACCESS:     540089  HIT:     496879  MISS:      43210  HIT %:    91.9995  MISS %:    8.00053   MPKI: 0.8642
LLC LOAD      ACCESS:     155162  HIT:     127334  MISS:      27828  HIT %:    82.0652  MISS %:    17.9348   MPKI: 0.55656
LLC RFO       ACCESS:      35933  HIT:      32262  MISS:       3671  HIT %:    89.7838  MISS %:    10.2162   MPKI: 0.07342
LLC PREFETCH  ACCESS:     286258  HIT:     276564  MISS:       9694  HIT %:    96.6135  MISS %:    3.38646   MPKI: 0.19388
LLC WRITEBACK ACCESS:      50849  HIT:      50609  MISS:        240  HIT %:     99.528  MISS %:   0.471986   MPKI: 0.0048
LLC LOAD TRANSLATION ACCESS:      11118  HIT:       9382  MISS:       1736  HIT %:    84.3857  MISS %:    15.6143   MPKI: 0.03472
LLC TRANSLATION FROM L1D PREFETCHER ACCESS:        769  HIT:        728  MISS:         41  HIT %:    94.6684  MISS %:     5.3316   MPKI: 0.00082
LLC PREFETCH  REQUESTED:          0  ISSUED:          0  USEFUL:       1732  USELESS:      20561
LLC USEFUL LOAD PREFETCHES:       1732 PREFETCH ISSUED TO LOWER LEVEL:       9694  ACCURACY: 17.8667
LLC TIMELY PREFETCHES:       1732 LATE PREFETCHES: 0 DROPPED PREFETCHES: 0
LLC PREFETCHES SAME FILL-ORIGIN LEVEL: 0 DIFFERENT FILL-ORIGIN LEVEL: 0
LLC AVERAGE MISS LATENCY: 143.546 cycles
LLC RQ	ACCESS:     202987	FORWARD:          0	MERGED:          0	TO_CACHE:     202982
LLC WQ	ACCESS:      50849	FORWARD:          5	MERGED:          0	TO_CACHE:      50849
LLC PQ	ACCESS:     286258	FORWARD:          0	MERGED:          0	TO_CACHE:     286258

LLC Dense regions hint to LLC: 0

RAW hits: 1081114
Loads Generated: 12311133
Loads sent to L1D: 11230019
Stores Generated: 6772777
Stores sent to L1D: 6772786
Major fault: 0 Minor fault: 6134
Allocated PAGES: 6134
I-Shadow cache 408 bytes
Touched + WorthPF tables 6144 bytes 
MMA filter 174 bytes 
FNL filter 272 bytes 
TOTAL PREFETCHER STORAGE SIZE: 25174 bytes
CPU 0 L1I next line prefetcher final stats

stream: 
stream:times selected: 1738037
stream:pref_filled: 113834
stream:pref_useful: 22725
stream:pref_late: 7336
stream:misses: 25979
stream:misses_by_poll: 0

CS: 
CS:times selected: 235998
CS:pref_filled: 57098
CS:pref_useful: 44971
CS:pref_late: 3337
CS:misses: 112981
CS:misses_by_poll: 5

CPLX: 
CPLX:times selected: 1496545
CPLX:pref_filled: 349256
CPLX:pref_useful: 179095
CPLX:pref_late: 14796
CPLX:misses: 359035
CPLX:misses_by_poll: 31

NL_L1: 
NL:times selected: 3513
NL:pref_filled: 294
NL:pref_useful: 32
NL:pref_late: 22
NL:misses: 363
NL:misses_by_poll: 0

total selections: 3474093
total_filled: 32024
total_useful: 11298
total_late: 27603
total_polluted: 36
total_misses_after_warmup: 1187686
conflicts: 2950155
Degree Incremented Times: 49272
Degree Decremented Times: 331097

L1 IP Table Write Accesses: 4722199
L1 IP Table Read Accesses: 1772044
L1 RST Write Accesses: 855021
L1 RST Read Accesses: 1710042
L1 CSPT Write Accesses: 855021
L1 CSPT Read Accesses: 2832184
L1 RR Filter Tag Write Accesses: 48814
L1 RR Filter Tag Read Accesses: 3517659
L1 IP Table Tag Write Accesses: 7923755
L1 IP Table Tag Read Accesses: 7923755
L1 RST Tag Write Accesses: 0
L1 RST Tag Read Accesses: 6791306
L1 RR Filter Write Accesses: 0
L1 RR Filter Read Accesses: 124587
test: 272285
L2 IP Table Read Accesses: 5804115
L2 IP Table Write Accesses: 10223216
L2 IP Table Tag Read Accesses: 5352578
L2 IP Table Tag Write Accesses: 5352578

DRAM Statistics
 CHANNEL 0
 RQ ROW_BUFFER_HIT:      14345  ROW_BUFFER_MISS:      28608
 DBUS_CONGESTED:         12
 WQ ROW_BUFFER_HIT:        763  ROW_BUFFER_MISS:       2408  FULL:          0

 AVG_CONGESTED_CYCLE: 3
 All warmup complete: 2
Channel 0 Bank busy for read cycles: 0
Channel 0 Bank busy for write cycles: 0
Channel 0
Rank 0
0banks busy for read cycles: 77498550
0banks busy for write cycles: 1811
1banks busy for read cycles: 2439840
1banks busy for write cycles: 461958
2banks busy for read cycles: 551050
2banks busy for write cycles: 151919
3banks busy for read cycles: 226174
3banks busy for write cycles: 57820
4banks busy for read cycles: 74299
4banks busy for write cycles: 22608
5banks busy for read cycles: 25788
5banks busy for write cycles: 9009
6banks busy for read cycles: 14892
6banks busy for write cycles: 3719
7banks busy for read cycles: 14051
7banks busy for write cycles: 650
8banks busy for read cycles: 22011
8banks busy for write cycles: 4720

CPU 0 Branch Prediction Accuracy: 99.7245% MPKI: 0.51862 Average ROB Occupancy at Mispredict: 93.8307
Branch types
NOT_BRANCH: 40586520 81.173%
BRANCH_DIRECT_JUMP: 525208 1.05042%
BRANCH_INDIRECT: 166358 0.332716%
BRANCH_CONDITIONAL: 6373074 12.7461%
BRANCH_DIRECT_CALL: 989261 1.97852%
BRANCH_INDIRECT_CALL: 184984 0.369968%
BRANCH_RETURN: 1174249 2.3485%
BRANCH_OTHER: 0 0%

DRAM PAGES: 1048576
Allocated PAGES: 6134
