
*** ChampSim Multicore Out-of-Order Simulator ***

Warmup Instructions: 50000000
Simulation Instructions: 50000000
Number of CPUs: 1
LLC sets: 2048
LLC ways: 16
Off-chip DRAM Size: 4096 MB Channels: 1 Width: 64-bit Data Rate: 6400 MT/s
CPU 0 runs ../IPC-traces//server_011.champsimtrace.xz
.xz
NUM_OF_IPS_IN_CRITICAL_IP_TRAINING: 64
NUM_OF_CRITICAL_IP_TRAINING_TABLE_WAYS: 2
NUM_OF_CRITICAL_IP_TRAINING_TABLE_SETS: 32
WOBBLY_CRITICAL_IP_CACHE_SETS: 32
WOBBLY_CRITICAL_IP_CACHE_WAYS: 4
BTB has LRU replacement policy
ITLB has LRU replacement policy
DTLB has LRU replacement policy
STLB has LRU replacement policy
CPU 0 L1I next line prefetcher
L1I has LRU replacement policy
L1D has LRU replacement policy
Bingo PHT WAYS: 16 and PHT_SIZE: 16384
Initialize SRRIP state for L2C
Initialize DRRIP state for LLC
Heartbeat CPU 0 instructions: 10000002 cycles: 2763819 heartbeat IPC: 3.61818 cumulative IPC: 3.61818 (Simulation time: 0 hr 2 min 47 sec) 
Heartbeat CPU 0 instructions: 20000002 cycles: 5526875 heartbeat IPC: 3.61918 cumulative IPC: 3.61868 (Simulation time: 0 hr 5 min 6 sec) 
Heartbeat CPU 0 instructions: 30000001 cycles: 8308137 heartbeat IPC: 3.59549 cumulative IPC: 3.61092 (Simulation time: 0 hr 7 min 25 sec) 
Heartbeat CPU 0 instructions: 40000003 cycles: 11065918 heartbeat IPC: 3.6261 cumulative IPC: 3.6147 (Simulation time: 0 hr 9 min 29 sec) 
Heartbeat CPU 0 instructions: 50000002 cycles: 13827556 heartbeat IPC: 3.62104 cumulative IPC: 3.61597 (Simulation time: 0 hr 11 min 27 sec) 

Warmup complete CPU 0 instructions: 50000002 cycles: 13827556 (Simulation time: 0 hr 11 min 27 sec) 

% increase in all ip prefetch 377.853
% increase in all ip prefetch 10.5938
% increase in all ip prefetch 6.89524
% increase in all ip prefetch -1.40295
Heartbeat CPU 0 instructions: 60000002 cycles: 28173797 heartbeat IPC: 0.697047 cumulative IPC: 0.697047 (Simulation time: 0 hr 14 min 3 sec) 
Heartbeat CPU 0 instructions: 70000001 cycles: 43482898 heartbeat IPC: 0.653206 cumulative IPC: 0.674415 (Simulation time: 0 hr 16 min 31 sec) 
Heartbeat CPU 0 instructions: 80000001 cycles: 60602589 heartbeat IPC: 0.584123 cumulative IPC: 0.641368 (Simulation time: 0 hr 18 min 57 sec) 
Heartbeat CPU 0 instructions: 90000001 cycles: 75425702 heartbeat IPC: 0.674622 cumulative IPC: 0.64937 (Simulation time: 0 hr 21 min 24 sec) 
Heartbeat CPU 0 instructions: 100000000 cycles: 89910285 heartbeat IPC: 0.690389 cumulative IPC: 0.657179 (Simulation time: 0 hr 23 min 46 sec) 
Finished CPU 0 instructions: 50000000 cycles: 76082744 cumulative IPC: 0.657179 (Simulation time: 0 hr 23 min 46 sec) 

ChampSim completed all CPUs

Region of Interest Statistics

CPU 0 cumulative IPC: 0.657179 instructions: 50000000 cycles: 76082744

CPU 0 Average Load ROB stall cycles: 2.01453e+07
CPU 0 Fraction of times ROB stalled by Loads: 38.9507
CPU 0 Percentage of Load stall cycles in Total stall cycles: 2.40348e+08
Issued all: 27675210
Issued LT all: 21614654
rob_not_full_when_issued_lt_all: 20762888
Issued LT one: 17114350
rob_not_full_when_issued_lt_one: 16357492
critical_ip_candidate_identification_operations: 5731748
critical_ip_candidate_identification_operation_per_cycle: 0.0753357
 Total stall cycles: 61670098
 Total load stall cycles: 148223055369031
Unique Load IPs: 66263
CPU 0 NUM of IPS identified critical: 59
CPU 0 Num of Load IPs stalling ROB: 47168
Threshold modification factor: -3
Max PIST entries: 64
Min PIST entries: 0
Avg PIST entries: 32
Trouble in retire width: 0.892775
MaC = Marked as critical.
lt_50_percent_before_Mac: 33
gt_90_percent_before_Mac: 1
gt_75_percent_before_Mac: 10
gt_50_percent_before_Mac: 15
stall_proportion_bin_same_before_after: 0
stall_proportion_bin_lower_before_after: 0
stall_proportion_bin_upper_before_after: 0
average_stall_proportion_before: 0.0618812
average_stall_proportion_after: 0.0637288
Critical IP stalls, total frequency: 108705
Non-critical IP stalls, total frequency: 2757169
Total Freq all stalling IPs: 2865874
Critical_IP_Detector_Accuracy_70: 0.966102
Critical_IP_Detector_Accuracy_80: 0.966102
Critical_IP_Detector_Accuracy_90: 1
Critical_IP_Detector_Coverage_70: 0.0243174
Critical_IP_Detector_Coverage_80: 0.0119122
Critical_IP_Detector_Coverage_90: 0.00597045
stat_90_percent_critical_ip_stalls_freq: 2579234
stat_90_percent_non_critical_ip_stalls_freq: 286640
AVERAGE_ROB_Occupancy_90_Percent_Critical_IP_Stalls: 62.7213
AVERAGE_ROB_Occupancy_90_Percent_Non_Critical_IP_Stalls: 43.9147
Critical_IP_ROB_Stalls_Bucket_0: 46403
Non-critical_IP_ROB_Stalls_Bucket_0: 1590225
Critical_IP_ROB_Stalls_Bucket_1: 24231
Non-critical_IP_ROB_Stalls_Bucket_1: 741233
Critical_IP_ROB_Stalls_Bucket_2: 13169
Non-critical_IP_ROB_Stalls_Bucket_2: 259146
Critical_IP_ROB_Stalls_Bucket_3: 5602
Non-critical_IP_ROB_Stalls_Bucket_3: 80782
Critical_IP_ROB_Stalls_Bucket_4: 3029
Non-critical_IP_ROB_Stalls_Bucket_4: 37404
Critical_IP_ROB_Stalls_Bucket_5: 2221
Non-critical_IP_ROB_Stalls_Bucket_5: 19655
Critical_IP_ROB_Stalls_Bucket_6: 14050
Non-critical_IP_ROB_Stalls_Bucket_6: 28724
0 => IPs accounting for >50 percent of stalls, 1 => 55, 2 => 60, 3 => 65 and so on till 90.
percent50: 50.0173 num IPs:  603
percent55: 55.0122 num IPs: 857
percent60: 60.0073 num IPs: 1196
percent65: 65.0053 num IPs: 1664
percent70: 70.0055 num IPs: 2344
percent75: 75.0003 num IPs: 3353
percent80: 80.0007 num IPs: 4785
percent85: 85.0002 num IPs: 6897
percent90: 90.0011 num IPs: 9882
Critical_ROB_Stalls_Percent_0_Bucket_0: 735065
Non-critical_ROB_Stalls_Percent_0_Bucket_0: 901563
Critical_ROB_Stalls_Percent_0_Bucket_1: 450389
Non-critical_ROB_Stalls_Percent_0_Bucket_1: 315075
Critical_ROB_Stalls_Percent_0_Bucket_2: 164394
Non-critical_ROB_Stalls_Percent_0_Bucket_2: 107921
Critical_ROB_Stalls_Percent_0_Bucket_3: 39365
Non-critical_ROB_Stalls_Percent_0_Bucket_3: 47019
Critical_ROB_Stalls_Percent_0_Bucket_4: 17296
Non-critical_ROB_Stalls_Percent_0_Bucket_4: 23137
Critical_ROB_Stalls_Percent_0_Bucket_5: 7634
Non-critical_ROB_Stalls_Percent_0_Bucket_5: 14242
Critical_ROB_Stalls_Percent_0_Bucket_6: 19289
Non-critical_ROB_Stalls_Percent_0_Bucket_6: 23485
Critical_ROB_Stalls_Percent_1_Bucket_0: 804913
Non-critical_ROB_Stalls_Percent_1_Bucket_0: 831715
Critical_ROB_Stalls_Percent_1_Bucket_1: 498876
Non-critical_ROB_Stalls_Percent_1_Bucket_1: 266588
Critical_ROB_Stalls_Percent_1_Bucket_2: 178493
Non-critical_ROB_Stalls_Percent_1_Bucket_2: 93822
Critical_ROB_Stalls_Percent_1_Bucket_3: 44155
Non-critical_ROB_Stalls_Percent_1_Bucket_3: 42229
Critical_ROB_Stalls_Percent_1_Bucket_4: 19406
Non-critical_ROB_Stalls_Percent_1_Bucket_4: 21027
Critical_ROB_Stalls_Percent_1_Bucket_5: 9532
Non-critical_ROB_Stalls_Percent_1_Bucket_5: 12344
Critical_ROB_Stalls_Percent_1_Bucket_6: 21204
Non-critical_ROB_Stalls_Percent_1_Bucket_6: 21570
Critical_ROB_Stalls_Percent_2_Bucket_0: 881909
Non-critical_ROB_Stalls_Percent_2_Bucket_0: 754719
Critical_ROB_Stalls_Percent_2_Bucket_1: 538201
Non-critical_ROB_Stalls_Percent_2_Bucket_1: 227263
Critical_ROB_Stalls_Percent_2_Bucket_2: 190983
Non-critical_ROB_Stalls_Percent_2_Bucket_2: 81332
Critical_ROB_Stalls_Percent_2_Bucket_3: 49755
Non-critical_ROB_Stalls_Percent_2_Bucket_3: 36629
Critical_ROB_Stalls_Percent_2_Bucket_4: 22418
Non-critical_ROB_Stalls_Percent_2_Bucket_4: 18015
Critical_ROB_Stalls_Percent_2_Bucket_5: 11980
Non-critical_ROB_Stalls_Percent_2_Bucket_5: 9896
Critical_ROB_Stalls_Percent_2_Bucket_6: 24488
Non-critical_ROB_Stalls_Percent_2_Bucket_6: 18286
Critical_ROB_Stalls_Percent_3_Bucket_0: 968410
Non-critical_ROB_Stalls_Percent_3_Bucket_0: 668218
Critical_ROB_Stalls_Percent_3_Bucket_1: 572828
Non-critical_ROB_Stalls_Percent_3_Bucket_1: 192636
Critical_ROB_Stalls_Percent_3_Bucket_2: 201254
Non-critical_ROB_Stalls_Percent_3_Bucket_2: 71061
Critical_ROB_Stalls_Percent_3_Bucket_3: 54309
Non-critical_ROB_Stalls_Percent_3_Bucket_3: 32075
Critical_ROB_Stalls_Percent_3_Bucket_4: 24953
Non-critical_ROB_Stalls_Percent_3_Bucket_4: 15480
Critical_ROB_Stalls_Percent_3_Bucket_5: 14058
Non-critical_ROB_Stalls_Percent_3_Bucket_5: 7818
Critical_ROB_Stalls_Percent_3_Bucket_6: 27157
Non-critical_ROB_Stalls_Percent_3_Bucket_6: 15617
Critical_ROB_Stalls_Percent_4_Bucket_0: 1053231
Non-critical_ROB_Stalls_Percent_4_Bucket_0: 583397
Critical_ROB_Stalls_Percent_4_Bucket_1: 608790
Non-critical_ROB_Stalls_Percent_4_Bucket_1: 156674
Critical_ROB_Stalls_Percent_4_Bucket_2: 213615
Non-critical_ROB_Stalls_Percent_4_Bucket_2: 58700
Critical_ROB_Stalls_Percent_4_Bucket_3: 59145
Non-critical_ROB_Stalls_Percent_4_Bucket_3: 27239
Critical_ROB_Stalls_Percent_4_Bucket_4: 27576
Non-critical_ROB_Stalls_Percent_4_Bucket_4: 12857
Critical_ROB_Stalls_Percent_4_Bucket_5: 15194
Non-critical_ROB_Stalls_Percent_4_Bucket_5: 6682
Critical_ROB_Stalls_Percent_4_Bucket_6: 28717
Non-critical_ROB_Stalls_Percent_4_Bucket_6: 14057
Critical_ROB_Stalls_Percent_5_Bucket_0: 1145406
Non-critical_ROB_Stalls_Percent_5_Bucket_0: 491222
Critical_ROB_Stalls_Percent_5_Bucket_1: 641576
Non-critical_ROB_Stalls_Percent_5_Bucket_1: 123888
Critical_ROB_Stalls_Percent_5_Bucket_2: 223101
Non-critical_ROB_Stalls_Percent_5_Bucket_2: 49214
Critical_ROB_Stalls_Percent_5_Bucket_3: 63163
Non-critical_ROB_Stalls_Percent_5_Bucket_3: 23221
Critical_ROB_Stalls_Percent_5_Bucket_4: 30069
Non-critical_ROB_Stalls_Percent_5_Bucket_4: 10364
Critical_ROB_Stalls_Percent_5_Bucket_5: 16180
Non-critical_ROB_Stalls_Percent_5_Bucket_5: 5696
Critical_ROB_Stalls_Percent_5_Bucket_6: 29912
Non-critical_ROB_Stalls_Percent_5_Bucket_6: 12862
Critical_ROB_Stalls_Percent_6_Bucket_0: 1232269
Non-critical_ROB_Stalls_Percent_6_Bucket_0: 404359
Critical_ROB_Stalls_Percent_6_Bucket_1: 675178
Non-critical_ROB_Stalls_Percent_6_Bucket_1: 90286
Critical_ROB_Stalls_Percent_6_Bucket_2: 235204
Non-critical_ROB_Stalls_Percent_6_Bucket_2: 37111
Critical_ROB_Stalls_Percent_6_Bucket_3: 68509
Non-critical_ROB_Stalls_Percent_6_Bucket_3: 17875
Critical_ROB_Stalls_Percent_6_Bucket_4: 32651
Non-critical_ROB_Stalls_Percent_6_Bucket_4: 7782
Critical_ROB_Stalls_Percent_6_Bucket_5: 17245
Non-critical_ROB_Stalls_Percent_6_Bucket_5: 4631
Critical_ROB_Stalls_Percent_6_Bucket_6: 31672
Non-critical_ROB_Stalls_Percent_6_Bucket_6: 11102
Critical_ROB_Stalls_Percent_7_Bucket_0: 1324799
Non-critical_ROB_Stalls_Percent_7_Bucket_0: 311829
Critical_ROB_Stalls_Percent_7_Bucket_1: 700089
Non-critical_ROB_Stalls_Percent_7_Bucket_1: 65375
Critical_ROB_Stalls_Percent_7_Bucket_2: 245151
Non-critical_ROB_Stalls_Percent_7_Bucket_2: 27164
Critical_ROB_Stalls_Percent_7_Bucket_3: 73474
Non-critical_ROB_Stalls_Percent_7_Bucket_3: 12910
Critical_ROB_Stalls_Percent_7_Bucket_4: 35287
Non-critical_ROB_Stalls_Percent_7_Bucket_4: 5146
Critical_ROB_Stalls_Percent_7_Bucket_5: 18955
Non-critical_ROB_Stalls_Percent_7_Bucket_5: 2921
Critical_ROB_Stalls_Percent_7_Bucket_6: 38247
Non-critical_ROB_Stalls_Percent_7_Bucket_6: 4527
Critical_ROB_Stalls_Percent_8_Bucket_0: 1423742
Non-critical_ROB_Stalls_Percent_8_Bucket_0: 212886
Critical_ROB_Stalls_Percent_8_Bucket_1: 725048
Non-critical_ROB_Stalls_Percent_8_Bucket_1: 40416
Critical_ROB_Stalls_Percent_8_Bucket_2: 255006
Non-critical_ROB_Stalls_Percent_8_Bucket_2: 17309
Critical_ROB_Stalls_Percent_8_Bucket_3: 78509
Non-critical_ROB_Stalls_Percent_8_Bucket_3: 7875
Critical_ROB_Stalls_Percent_8_Bucket_4: 36960
Non-critical_ROB_Stalls_Percent_8_Bucket_4: 3473
Critical_ROB_Stalls_Percent_8_Bucket_5: 19942
Non-critical_ROB_Stalls_Percent_8_Bucket_5: 1934
Critical_ROB_Stalls_Percent_8_Bucket_6: 40027
Non-critical_ROB_Stalls_Percent_8_Bucket_6: 2747
Average ROB occupancy Load Stall Begin: 50.2092
Average ROB occupancy Load Stall End: 60.8403
Min ROB occupancy Load Stall Begin: 1
Max ROB occupancy Load Stall Begin: 352
Min ROB occupancy Load Stall End: 1
Max ROB occupancy Load Stall End: 352
Average ROB occupancy Critical Load Stall Begin: 112.502
Average ROB occupancy Critical Load Stall End: 120.678
Min ROB occupancy Critical Load Stall Begin: 2
Max ROB occupancy Critical Load Stall Begin: 352
Min ROB occupancy Critical Load Stall End: 2
Max ROB occupancy Critical Load Stall End: 352
 ROB Load Stall Begin Bucket Count 0: 1931632
 ROB Load Stall End Bucket Count 0: 1636628
 ROB Critical Load Stall Begin Bucket Count 0: 37545
 ROB Critical Load Stall End Bucket Count 0: 31502
 ROB Load Stall Begin Bucket Count 1: 578233
 ROB Load Stall End Bucket Count 1: 765464
 ROB Critical Load Stall Begin Bucket Count 1: 14006
 ROB Critical Load Stall End Bucket Count 1: 17941
 ROB Load Stall Begin Bucket Count 2: 206439
 ROB Load Stall End Bucket Count 2: 272315
 ROB Critical Load Stall Begin Bucket Count 2: 9272
 ROB Critical Load Stall End Bucket Count 2: 10230
 ROB Load Stall Begin Bucket Count 3: 63538
 ROB Load Stall End Bucket Count 3: 86384
 ROB Critical Load Stall Begin Bucket Count 3: 3988
 ROB Critical Load Stall End Bucket Count 3: 4549
 ROB Load Stall Begin Bucket Count 4: 30858
 ROB Load Stall End Bucket Count 4: 40433
 ROB Critical Load Stall Begin Bucket Count 4: 2367
 ROB Critical Load Stall End Bucket Count 4: 2587
 ROB Load Stall Begin Bucket Count 5: 18699
 ROB Load Stall End Bucket Count 5: 21876
 ROB Critical Load Stall Begin Bucket Count 5: 1880
 ROB Critical Load Stall End Bucket Count 5: 1938
 ROB Load Stall Begin Bucket Count 6: 36475
 ROB Load Stall End Bucket Count 6: 42774
 ROB Critical Load Stall Begin Bucket Count 6: 12043
 ROB Critical Load Stall End Bucket Count 6: 12354
PIST Tag Read Accesses: 4266170
PIST Read Accesses: 2133085
PIST Tag Write Accesses: 4266170
PIST Write Accesses: 2133085
Criticality detector called times: 2784773
Max global_stall_cycles_count: 3399409
Threshold Modified: 3 times, factor: -3
Sturdy critical IP cache stats: 
 Unused entries: 0
CIC Tag Read Accesses: 0
CIC Read Accesses: 0
CIC Tag Write Accesses: 0
CIC Write Accesses: 0
Wobbly critical IP cache stats: 
 Unused entries: 69
CIC Tag Read Accesses: 71383122
CIC Read Accesses: 0
CIC Tag Write Accesses: 2028
CIC Write Accesses: 0
ITLB TOTAL     ACCESS:    9077389  HIT:    8854226  MISS:     223163  HIT %:    97.5416  MISS %:    2.45845   MPKI: 4.46326
ITLB LOAD TRANSLATION ACCESS:    7873608  HIT:    7797777  MISS:      75831  HIT %:    99.0369  MISS %:   0.963104   MPKI: 1.51662
ITLB TRANSLATION FROM L1D PREFETCHER ACCESS:    1203781  HIT:    1056449  MISS:     147332  HIT %:    87.7609  MISS %:    12.2391   MPKI: 2.94664
ITLBprefetch_cycle_count: 0 prefetches_per_prefetch_cycle: -nan
ITLB PREFETCH  REQUESTED:          0  ISSUED:          0  USEFUL:     116428  USELESS:      30906
ITLB USEFUL LOAD PREFETCHES:     116428 PREFETCH ISSUED TO LOWER LEVEL:          0  ACCURACY: inf
ITLB TIMELY PREFETCHES:     116428 LATE PREFETCHES: 870 DROPPED PREFETCHES: 5555
ITLB PREFETCHES SAME FILL-ORIGIN LEVEL: 0 DIFFERENT FILL-ORIGIN LEVEL: 0
ITLB AVERAGE MISS LATENCY: 213647 cycles
ITLB RQ	ACCESS:   12402245	FORWARD:          0	MERGED:    3287916	TO_CACHE:    9114329

DTLB TOTAL     ACCESS:    9685928  HIT:    9110501  MISS:     575427  HIT %:    94.0591  MISS %:    5.94086   MPKI: 11.5085
DTLB LOAD TRANSLATION ACCESS:    9685928  HIT:    9110501  MISS:     575427  HIT %:    94.0591  MISS %:    5.94086   MPKI: 11.5085
DTLBprefetch_cycle_count: 0 prefetches_per_prefetch_cycle: -nan
DTLB PREFETCH  REQUESTED:          0  ISSUED:          0  USEFUL:          0  USELESS:          0
DTLB USEFUL LOAD PREFETCHES:          0 PREFETCH ISSUED TO LOWER LEVEL:          0  ACCURACY: -nan
DTLB TIMELY PREFETCHES:          0 LATE PREFETCHES: 0 DROPPED PREFETCHES: 0
DTLB PREFETCHES SAME FILL-ORIGIN LEVEL: 0 DIFFERENT FILL-ORIGIN LEVEL: 0
DTLB AVERAGE MISS LATENCY: 15.0923 cycles
DTLB RQ	ACCESS:   12237878	FORWARD:          0	MERGED:    2515269	TO_CACHE:    9722609

STLB TOTAL     ACCESS:     798582  HIT:     695932  MISS:     102650  HIT %:     87.146  MISS %:     12.854   MPKI: 2.053
STLB LOAD TRANSLATION ACCESS:     650389  HIT:     569458  MISS:      80931  HIT %:    87.5565  MISS %:    12.4435   MPKI: 1.61862
STLB TRANSLATION FROM L1D PREFETCHER ACCESS:     148193  HIT:     126474  MISS:      21719  HIT %:    85.3441  MISS %:    14.6559   MPKI: 0.43438
STLBprefetch_cycle_count: 0 prefetches_per_prefetch_cycle: -nan
STLB PREFETCH  REQUESTED:          0  ISSUED:          0  USEFUL:      13171  USELESS:       8569
STLB USEFUL LOAD PREFETCHES:      13171 PREFETCH ISSUED TO LOWER LEVEL:          0  ACCURACY: inf
STLB TIMELY PREFETCHES:      13171 LATE PREFETCHES: 8 DROPPED PREFETCHES: 5556
STLB PREFETCHES SAME FILL-ORIGIN LEVEL: 0 DIFFERENT FILL-ORIGIN LEVEL: 0
STLB AVERAGE MISS LATENCY: 48.4713 cycles
STLB RQ	ACCESS:     804146	FORWARD:          0	MERGED:          0	TO_CACHE:     804146

STLB Hit, L1D data hit: 0
STLB Hit, L2C data hit: 0
STLB Hit, LLC data hit: 0
STLB Hit, LLC data miss: 0
STLB STLB hints to L2: 0
L1D TOTAL     ACCESS:   12070096  HIT:   11437463  MISS:     632633  HIT %:    94.7587  MISS %:    5.24133   MPKI: 12.6527
L1D LOAD      ACCESS:    7234704  HIT:    6693313  MISS:     541391  HIT %:    92.5167  MISS %:    7.48325   MPKI: 10.8278
L1D RFO       ACCESS:    4835392  HIT:    4744150  MISS:      91242  HIT %:     98.113  MISS %:    1.88696   MPKI: 1.82484
L1Dprefetch_cycle_count: 0 prefetches_per_prefetch_cycle: -nan
L1D PREFETCH  REQUESTED:          0  ISSUED:          0  USEFUL:          0  USELESS:          0
L1D USEFUL LOAD PREFETCHES:          0 PREFETCH ISSUED TO LOWER LEVEL:          0  ACCURACY: -nan
L1D TIMELY PREFETCHES:          0 LATE PREFETCHES: 0 DROPPED PREFETCHES: 0
L1D PREFETCHES SAME FILL-ORIGIN LEVEL: 0 DIFFERENT FILL-ORIGIN LEVEL: 0
L1D AVERAGE MISS LATENCY: 48.191 cycles
L1D RQ	ACCESS:   11101771	FORWARD:          0	MERGED:    3746321	TO_CACHE:    7275067
L1D WQ	ACCESS:    5073610	FORWARD:      80383	MERGED:     110799	TO_CACHE:    4962811

L1D UNIQUE REGIONS ACCESSED: 0
L1D REGIONS CONFLICTS: 0
L1D Cross Page Prefetch Requests: 0
L1D Same Page Prefetch Requests: 0
L1D ROI Sum of L1D PQ occupancy: 0
L1D PREFETCHES PUSHED FROM L2C: 0
L1I TOTAL     ACCESS:   12243441  HIT:   10362729  MISS:    1880712  HIT %:     84.639  MISS %:     15.361   MPKI: 37.6142
L1I LOAD      ACCESS:    9555769  HIT:    9276580  MISS:     279189  HIT %:    97.0783  MISS %:    2.92168   MPKI: 5.58378
L1I PREFETCH  ACCESS:    2687672  HIT:    1086149  MISS:    1601523  HIT %:    40.4123  MISS %:    59.5877   MPKI: 32.0305
L1Iprefetch_cycle_count: 0 prefetches_per_prefetch_cycle: inf
L1I PREFETCH  REQUESTED:    2923010  ISSUED:    2915196  USEFUL:    1041951  USELESS:     559554
L1I USEFUL LOAD PREFETCHES:    1041951 PREFETCH ISSUED TO LOWER LEVEL:    1634880  ACCURACY: 63.7326
L1I TIMELY PREFETCHES:    1041951 LATE PREFETCHES: 32893 DROPPED PREFETCHES: 18344
L1I PREFETCHES SAME FILL-ORIGIN LEVEL: 1634880 DIFFERENT FILL-ORIGIN LEVEL: 0
L1I AVERAGE MISS LATENCY: 913071 cycles
L1I RQ	ACCESS:   13822953	FORWARD:          0	MERGED:    4239342	TO_CACHE:    9583611
L1I PQ	ACCESS:    2915196	FORWARD:          0	MERGED:      96562	TO_CACHE:    2818634

BTB TOTAL     ACCESS:    5007119  HIT:    4225540  MISS:     781579  HIT %:    84.3906  MISS %:    15.6094   MPKI: 15.6316
BTB BRANCH_DIRECT_JUMP	ACCESS:     451601  HIT:     395730  MISS:      55871
BTB BRANCH_INDIRECT	ACCESS:     151580  HIT:     115440  MISS:      36140
BTB BRANCH_CONDITIONAL	ACCESS:    2656300  HIT:    2427735  MISS:     228565
BTB BRANCH_DIRECT_CALL	ACCESS:     647826  HIT:     542970  MISS:     104856
BTB BRANCH_INDIRECT_CALL	ACCESS:     211373  HIT:     173798  MISS:      37575
BTB BRANCH_RETURN	ACCESS:     888439  HIT:     569867  MISS:     318572
BTB BRANCH_OTHER ACCESS:          0  HIT:          0  MISS:          0

L2C TOTAL     ACCESS:    2918949  HIT:    1849706  MISS:    1069243  HIT %:    63.3689  MISS %:    36.6311   MPKI: 21.3849
L2C LOAD      ACCESS:     787675  HIT:     415814  MISS:     371861  HIT %:      52.79  MISS %:      47.21   MPKI: 7.43722
L2C DATA LOAD MPKI: 5.49078
L2C INSTRUCTION LOAD MPKI: 1.94644
L2C RFO       ACCESS:      91233  HIT:      41417  MISS:      49816  HIT %:     45.397  MISS %:     54.603   MPKI: 0.99632
L2C PREFETCH  ACCESS:    1650798  HIT:    1075908  MISS:     574890  HIT %:     65.175  MISS %:     34.825   MPKI: 11.4978
L2C DATA PREFETCH MPKI: 0.15324
L2C INSTRUCTION PREFETCH MPKI: 11.3446
L2C WRITEBACK ACCESS:     248963  HIT:     229515  MISS:      19448  HIT %:    92.1884  MISS %:     7.8116   MPKI: 0.38896
L2C LOAD TRANSLATION ACCESS:     106338  HIT:      61274  MISS:      45064  HIT %:    57.6219  MISS %:    42.3781   MPKI: 0.90128
L2C TRANSLATION FROM L1D PREFETCHER ACCESS:      33942  HIT:      25778  MISS:       8164  HIT %:    75.9472  MISS %:    24.0528   MPKI: 0.16328
L2Cprefetch_cycle_count: 7064 prefetches_per_prefetch_cycle: 2.47707
L2C PREFETCH  REQUESTED:      17498  ISSUED:      17498  USEFUL:      24333  USELESS:     558601
L2C USEFUL LOAD PREFETCHES:      24333 PREFETCH ISSUED TO LOWER LEVEL:     575068  ACCURACY: 4.23133
L2C TIMELY PREFETCHES:      24333 LATE PREFETCHES: 178 DROPPED PREFETCHES: 0
L2C PREFETCHES SAME FILL-ORIGIN LEVEL: 7840 DIFFERENT FILL-ORIGIN LEVEL: 0
L2C AVERAGE MISS LATENCY: 44.7126 cycles
L2C RQ	ACCESS:    1019209	FORWARD:          0	MERGED:          0	TO_CACHE:    1019188
L2C WQ	ACCESS:     248963	FORWARD:         21	MERGED:          0	TO_CACHE:     248963
L2C PQ	ACCESS:    1651914	FORWARD:          0	MERGED:          0	TO_CACHE:    1651914

L2C Instructions Evicting Data 218021
L2C Translations Evicting Data 17740
L2C Data Evicting Data 109455
L2C Instructions Evicting Instructions 413869
L2C Translations Evicting Instructions 32766
L2C Data Evicting Instructions 205530
L2C Instructions Evicting Translations 32660
L2C Translations Evicting Translations 2722
L2C Data Evicting Translations 17032
L2C Dense regions hint from L2: 0
PSCL5 TOTAL     ACCESS:     108206  HIT:     108206  MISS:          0  HIT %:        100  MISS %:          0   MPKI: 0
PSCL5 LOAD TRANSLATION ACCESS:      80923  HIT:      80923  MISS:          0  HIT %:        100  MISS %:          0   MPKI: 0
PSCL5 TRANSLATION FROM L1D PREFETCHER ACCESS:      27283  HIT:      27283  MISS:          0  HIT %:        100  MISS %:          0   MPKI: 0
PSCL5prefetch_cycle_count: 0 prefetches_per_prefetch_cycle: -nan
PSCL5 PREFETCH  REQUESTED:          0  ISSUED:          0  USEFUL:          0  USELESS:          0
PSCL5 USEFUL LOAD PREFETCHES:          0 PREFETCH ISSUED TO LOWER LEVEL:          0  ACCURACY: -nan
PSCL5 TIMELY PREFETCHES:          0 LATE PREFETCHES: 0 DROPPED PREFETCHES: 0
PSCL5 PREFETCHES SAME FILL-ORIGIN LEVEL: 0 DIFFERENT FILL-ORIGIN LEVEL: 0

PSCL4 TOTAL     ACCESS:     101086  HIT:     100795  MISS:        291  HIT %:    99.7121  MISS %:   0.287874   MPKI: 0.00582
PSCL4 LOAD TRANSLATION ACCESS:      76831  HIT:      76540  MISS:        291  HIT %:    99.6212  MISS %:   0.378753   MPKI: 0.00582
PSCL4 TRANSLATION FROM L1D PREFETCHER ACCESS:      24255  HIT:      24255  MISS:          0  HIT %:        100  MISS %:          0   MPKI: 0
PSCL4prefetch_cycle_count: 0 prefetches_per_prefetch_cycle: -nan
PSCL4 PREFETCH  REQUESTED:          0  ISSUED:          0  USEFUL:          0  USELESS:          0
PSCL4 USEFUL LOAD PREFETCHES:          0 PREFETCH ISSUED TO LOWER LEVEL:          0  ACCURACY: -nan
PSCL4 TIMELY PREFETCHES:          0 LATE PREFETCHES: 0 DROPPED PREFETCHES: 0
PSCL4 PREFETCHES SAME FILL-ORIGIN LEVEL: 0 DIFFERENT FILL-ORIGIN LEVEL: 0

PSCL3 TOTAL     ACCESS:     106939  HIT:     106089  MISS:        850  HIT %:    99.2052  MISS %:   0.794846   MPKI: 0.017
PSCL3 LOAD TRANSLATION ACCESS:      80430  HIT:      79580  MISS:        850  HIT %:    98.9432  MISS %:    1.05682   MPKI: 0.017
PSCL3 TRANSLATION FROM L1D PREFETCHER ACCESS:      26509  HIT:      26509  MISS:          0  HIT %:        100  MISS %:          0   MPKI: 0
PSCL3prefetch_cycle_count: 0 prefetches_per_prefetch_cycle: -nan
PSCL3 PREFETCH  REQUESTED:          0  ISSUED:          0  USEFUL:          0  USELESS:          0
PSCL3 USEFUL LOAD PREFETCHES:          0 PREFETCH ISSUED TO LOWER LEVEL:          0  ACCURACY: -nan
PSCL3 TIMELY PREFETCHES:          0 LATE PREFETCHES: 0 DROPPED PREFETCHES: 0
PSCL3 PREFETCHES SAME FILL-ORIGIN LEVEL: 0 DIFFERENT FILL-ORIGIN LEVEL: 0

PSCL2 TOTAL     ACCESS:     105120  HIT:      77624  MISS:      27496  HIT %:    73.8432  MISS %:    26.1568   MPKI: 0.54992
PSCL2 LOAD TRANSLATION ACCESS:      83900  HIT:      56404  MISS:      27496  HIT %:    67.2277  MISS %:    32.7723   MPKI: 0.54992
PSCL2 TRANSLATION FROM L1D PREFETCHER ACCESS:      21220  HIT:      21220  MISS:          0  HIT %:        100  MISS %:          0   MPKI: 0
PSCL2prefetch_cycle_count: 0 prefetches_per_prefetch_cycle: -nan
PSCL2 PREFETCH  REQUESTED:          0  ISSUED:          0  USEFUL:          0  USELESS:          0
PSCL2 USEFUL LOAD PREFETCHES:          0 PREFETCH ISSUED TO LOWER LEVEL:          0  ACCURACY: -nan
PSCL2 TIMELY PREFETCHES:          0 LATE PREFETCHES: 0 DROPPED PREFETCHES: 0
PSCL2 PREFETCHES SAME FILL-ORIGIN LEVEL: 0 DIFFERENT FILL-ORIGIN LEVEL: 0

LLC TOTAL     ACCESS:    1174936  HIT:    1069994  MISS:     104942  HIT %:    91.0683  MISS %:    8.93172   MPKI: 2.09884
LLC LOAD      ACCESS:     371682  HIT:     311885  MISS:      59797  HIT %:    83.9118  MISS %:    16.0882   MPKI: 1.19594
LLC RFO       ACCESS:      49814  HIT:      30427  MISS:      19387  HIT %:    61.0812  MISS %:    38.9188   MPKI: 0.38774
LLC PREFETCH  ACCESS:     575068  HIT:     553503  MISS:      21565  HIT %:      96.25  MISS %:    3.74999   MPKI: 0.4313
LLC WRITEBACK ACCESS:     125144  HIT:     123076  MISS:       2068  HIT %:    98.3475  MISS %:     1.6525   MPKI: 0.04136
LLC LOAD TRANSLATION ACCESS:      45064  HIT:      43033  MISS:       2031  HIT %:    95.4931  MISS %:    4.50692   MPKI: 0.04062
LLC TRANSLATION FROM L1D PREFETCHER ACCESS:       8164  HIT:       8070  MISS:         94  HIT %:    98.8486  MISS %:     1.1514   MPKI: 0.00188
LLCprefetch_cycle_count: 0 prefetches_per_prefetch_cycle: -nan
LLC PREFETCH  REQUESTED:          0  ISSUED:          0  USEFUL:       1383  USELESS:      17785
LLC USEFUL LOAD PREFETCHES:       1383 PREFETCH ISSUED TO LOWER LEVEL:      21565  ACCURACY: 6.41317
LLC TIMELY PREFETCHES:       1383 LATE PREFETCHES: 0 DROPPED PREFETCHES: 0
LLC PREFETCHES SAME FILL-ORIGIN LEVEL: 0 DIFFERENT FILL-ORIGIN LEVEL: 0
LLC AVERAGE MISS LATENCY: 154.811 cycles
LLC RQ	ACCESS:     474727	FORWARD:          0	MERGED:          0	TO_CACHE:     474724
LLC WQ	ACCESS:     125144	FORWARD:          3	MERGED:          0	TO_CACHE:     125144
LLC PQ	ACCESS:     575068	FORWARD:          0	MERGED:          0	TO_CACHE:     575068

LLC Dense regions hint to LLC: 0

RAW hits: 994899
Loads Generated: 12096670
Loads sent to L1D: 11101771
Stores Generated: 5073603
Stores sent to L1D: 5073610
Major fault: 0 Minor fault: 7361
Allocated PAGES: 7361
I-Shadow cache 408 bytes
Touched + WorthPF tables 6144 bytes 
MMA filter 174 bytes 
FNL filter 272 bytes 
TOTAL PREFETCHER STORAGE SIZE: 25174 bytes
CPU 0 L1I next line prefetcher final stats
total_pref_operate_instances_l2: 1442077
dynamic_config_counter_instances_l2_1: 1427982
dynamic_config_counter_instances_l2_2: 5090
dynamic_config_counter_instances_l2_3: 9005
dynamic_config_counter_instances_l2_4: 0
dynamic_config_counter_instances_l2_5: 0
[Bingo] PHT Access: 17894
[Bingo] PHT Hit PC+Addr: 6716
[Bingo] PHT Hit PC+Offs: 616
[Bingo] PHT Miss: 10562
[Bingo] Prefetch PC+Addr: 0
[Bingo] Prefetch PC+Offs: 0
[Bingo] Useful PC+Addr: 0
[Bingo] Useful PC+Offs: 0
[Bingo] Useless PC+Addr: 0
[Bingo] Useless PC+Offs: 0
[Bingo] L1 Prefetch per Region: 0
[Bingo] L2 Prefetch per Region: 3.82215
[Bingo] L3 Prefetch per Region: 0
[Bingo] No Prefetch per Region: 28.1779
[Bingo] Number of Voters Mean: 2.15909
[Bingo] Number of Voters SD: 5.26789
PHT read accesses: 73362
PHT write accesses: 6984
AT read accesses: 32471
AT write accesses: 36376
FT read accesses: 22240
FT write accesses: 17894
PS read accesses: 14720
PS write accesses: 7332
PHT tag read accesses: 319936
PHT tag write accesses: 13700
AT tag read accesses: 18177962
AT tag write accesses: 39438
FT tag read accesses: 18133051
FT tag write accesses: 32937
PS tag read accesses: 1002610
PS tag write accesses: 22051

DRAM Statistics
 CHANNEL 0
 RQ ROW_BUFFER_HIT:      19450  ROW_BUFFER_MISS:      83424
 DBUS_CONGESTED:         68
 WQ ROW_BUFFER_HIT:      11816  ROW_BUFFER_MISS:      46486  FULL:          0

 AVG_CONGESTED_CYCLE: 4
 All warmup complete: 2
Channel 0 Bank busy for read cycles: 0
Channel 0 Bank busy for write cycles: 0
Channel 0
Rank 0
0banks busy for read cycles: 61305913
0banks busy for write cycles: 24605
1banks busy for read cycles: 6583561
1banks busy for write cycles: 3434012
2banks busy for read cycles: 1507567
2banks busy for write cycles: 1084876
3banks busy for read cycles: 423419
3banks busy for write cycles: 443228
4banks busy for read cycles: 200132
4banks busy for write cycles: 230297
5banks busy for read cycles: 118104
5banks busy for write cycles: 145067
6banks busy for read cycles: 112491
6banks busy for write cycles: 118787
7banks busy for read cycles: 51240
7banks busy for write cycles: 111131
8banks busy for read cycles: 24825
8banks busy for write cycles: 163490

CPU 0 Branch Prediction Accuracy: 97.5565% MPKI: 4.59006 Average ROB Occupancy at Mispredict: 38.3352
Branch types
NOT_BRANCH: 40607200 81.2144%
BRANCH_DIRECT_JUMP: 451601 0.903202%
BRANCH_INDIRECT: 151580 0.30316%
BRANCH_CONDITIONAL: 7041635 14.0833%
BRANCH_DIRECT_CALL: 647826 1.29565%
BRANCH_INDIRECT_CALL: 211373 0.422746%
BRANCH_RETURN: 888439 1.77688%
BRANCH_OTHER: 0 0%

DRAM PAGES: 1048576
Allocated PAGES: 7361
