
*** ChampSim Multicore Out-of-Order Simulator ***

Warmup Instructions: 50000000
Simulation Instructions: 50000000
Number of CPUs: 1
LLC sets: 2048
LLC ways: 16
Off-chip DRAM Size: 4096 MB Channels: 1 Width: 64-bit Data Rate: 6400 MT/s
CPU 0 runs ../../IPC-traces//server_025.champsimtrace.xz
.xz
NUM_OF_IPS_IN_CRITICAL_IP_TRAINING: 64
NUM_OF_CRITICAL_IP_TRAINING_TABLE_WAYS: 2
NUM_OF_CRITICAL_IP_TRAINING_TABLE_SETS: 32
WOBBLY_CRITICAL_IP_CACHE_SETS: 32
WOBBLY_CRITICAL_IP_CACHE_WAYS: 4
BTB has LRU replacement policy
ITLB has LRU replacement policy
DTLB has LRU replacement policy
STLB has LRU replacement policy
CPU 0 L1I next line prefetcher
L1I has LRU replacement policy
L1D has LRU replacement policy
Bingo PHT WAYS: 16 and PHT_SIZE: 16384
Initialize SRRIP state for L2C
Initialize DRRIP state for LLC
Heartbeat CPU 0 instructions: 10000000 cycles: 2884719 heartbeat IPC: 3.46654 cumulative IPC: 3.46654 (Simulation time: 0 hr 3 min 22 sec) 
Heartbeat CPU 0 instructions: 20000003 cycles: 5768234 heartbeat IPC: 3.46799 cumulative IPC: 3.46727 (Simulation time: 0 hr 6 min 46 sec) 
Heartbeat CPU 0 instructions: 30000001 cycles: 8647875 heartbeat IPC: 3.47265 cumulative IPC: 3.46906 (Simulation time: 0 hr 10 min 10 sec) 
Heartbeat CPU 0 instructions: 40000001 cycles: 11530765 heartbeat IPC: 3.46874 cumulative IPC: 3.46898 (Simulation time: 0 hr 13 min 30 sec) 
Heartbeat CPU 0 instructions: 50000001 cycles: 14412548 heartbeat IPC: 3.47007 cumulative IPC: 3.4692 (Simulation time: 0 hr 16 min 51 sec) 

Warmup complete CPU 0 instructions: 50000001 cycles: 14412548 (Simulation time: 0 hr 16 min 51 sec) 

% increase in all ip prefetch 412.916
% increase in all ip prefetch -0.73716
Heartbeat CPU 0 instructions: 60000000 cycles: 30631420 heartbeat IPC: 0.616566 cumulative IPC: 0.616566 (Simulation time: 0 hr 20 min 6 sec) 
Heartbeat CPU 0 instructions: 70000000 cycles: 46838901 heartbeat IPC: 0.616999 cumulative IPC: 0.616782 (Simulation time: 0 hr 23 min 20 sec) 
Heartbeat CPU 0 instructions: 80000002 cycles: 62989730 heartbeat IPC: 0.619163 cumulative IPC: 0.617574 (Simulation time: 0 hr 26 min 34 sec) 
Heartbeat CPU 0 instructions: 90000002 cycles: 77838923 heartbeat IPC: 0.673437 cumulative IPC: 0.630652 (Simulation time: 0 hr 29 min 44 sec) 
Heartbeat CPU 0 instructions: 100000003 cycles: 91552816 heartbeat IPC: 0.729188 cumulative IPC: 0.64817 (Simulation time: 0 hr 32 min 32 sec) 
Finished CPU 0 instructions: 50000002 cycles: 77140268 cumulative IPC: 0.64817 (Simulation time: 0 hr 32 min 32 sec) 

ChampSim completed all CPUs

Region of Interest Statistics

CPU 0 cumulative IPC: 0.64817 instructions: 50000002 cycles: 77140268

CPU 0 Average Load ROB stall cycles: 6.13186e+06
CPU 0 Fraction of times ROB stalled by Loads: 11.6969
CPU 0 Percentage of Load stall cycles in Total stall cycles: 9.69572e+07
 Total stall cycles: 45856385
 Total load stall cycles: 44461063896713
CPU 0 NUM of IPS identified critical: 7
CPU 0 Num of Load IPs stalling ROB: 4906
Threshold modification factor: -1
Max PIST entries: 64
Min PIST entries: 0
Avg PIST entries: 31.08
Trouble in retire width: 0.837309
MaC = Marked as critical.
lt_50_percent_before_Mac: 7
gt_90_percent_before_Mac: 0
gt_75_percent_before_Mac: 0
gt_50_percent_before_Mac: 0
stall_proportion_bin_same_before_after: 0
stall_proportion_bin_lower_before_after: 0
stall_proportion_bin_upper_before_after: 0
average_stall_proportion_before: 0.18429
average_stall_proportion_after: 0.193287
Critical IP stalls, total frequency: 34808
Non-critical IP stalls, total frequency: 708676
Critical_IP_ROB_Stalls_Bucket_0: 7242
Non-critical_IP_ROB_Stalls_Bucket_0: 670021
Critical_IP_ROB_Stalls_Bucket_1: 22598
Non-critical_IP_ROB_Stalls_Bucket_1: 96729
Critical_IP_ROB_Stalls_Bucket_2: 2980
Non-critical_IP_ROB_Stalls_Bucket_2: 33292
Critical_IP_ROB_Stalls_Bucket_3: 1482
Non-critical_IP_ROB_Stalls_Bucket_3: 9283
Critical_IP_ROB_Stalls_Bucket_4: 256
Non-critical_IP_ROB_Stalls_Bucket_4: 2867
Critical_IP_ROB_Stalls_Bucket_5: 5
Non-critical_IP_ROB_Stalls_Bucket_5: 901
Critical_IP_ROB_Stalls_Bucket_6: 245
Non-critical_IP_ROB_Stalls_Bucket_6: 220
0 => IPs accounting for >50 percent of stalls, 1 => 55, 2 => 60, 3 => 65 and so on till 90.
percent50: 50.0341 num IPs:207
percent55: 55.0222 num IPs:268
percent60: 60.0613 num IPs:338
percent65: 65.0177 num IPs:420
percent70: 70.0089 num IPs:508
percent75: 75.0353 num IPs:611
percent80: 80.0148 num IPs:737
percent85: 85.0069 num IPs:894
percent90: 90.0149 num IPs:1080
Critical_ROB_Stalls_Percent_0_Bucket_0: 255029
Non-critical_ROB_Stalls_Percent_0_Bucket_0: 422234
Critical_ROB_Stalls_Percent_0_Bucket_1: 78832
Non-critical_ROB_Stalls_Percent_0_Bucket_1: 40495
Critical_ROB_Stalls_Percent_0_Bucket_2: 27530
Non-critical_ROB_Stalls_Percent_0_Bucket_2: 8742
Critical_ROB_Stalls_Percent_0_Bucket_3: 7986
Non-critical_ROB_Stalls_Percent_0_Bucket_3: 2779
Critical_ROB_Stalls_Percent_0_Bucket_4: 2212
Non-critical_ROB_Stalls_Percent_0_Bucket_4: 911
Critical_ROB_Stalls_Percent_0_Bucket_5: 381
Non-critical_ROB_Stalls_Percent_0_Bucket_5: 525
Critical_ROB_Stalls_Percent_0_Bucket_6: 26
Non-critical_ROB_Stalls_Percent_0_Bucket_6: 439
Critical_ROB_Stalls_Percent_1_Bucket_0: 289047
Non-critical_ROB_Stalls_Percent_1_Bucket_0: 388216
Critical_ROB_Stalls_Percent_1_Bucket_1: 81034
Non-critical_ROB_Stalls_Percent_1_Bucket_1: 38293
Critical_ROB_Stalls_Percent_1_Bucket_2: 27906
Non-critical_ROB_Stalls_Percent_1_Bucket_2: 8366
Critical_ROB_Stalls_Percent_1_Bucket_3: 8423
Non-critical_ROB_Stalls_Percent_1_Bucket_3: 2342
Critical_ROB_Stalls_Percent_1_Bucket_4: 2263
Non-critical_ROB_Stalls_Percent_1_Bucket_4: 860
Critical_ROB_Stalls_Percent_1_Bucket_5: 382
Non-critical_ROB_Stalls_Percent_1_Bucket_5: 524
Critical_ROB_Stalls_Percent_1_Bucket_6: 26
Non-critical_ROB_Stalls_Percent_1_Bucket_6: 439
Critical_ROB_Stalls_Percent_2_Bucket_0: 322089
Non-critical_ROB_Stalls_Percent_2_Bucket_0: 355174
Critical_ROB_Stalls_Percent_2_Bucket_1: 84443
Non-critical_ROB_Stalls_Percent_2_Bucket_1: 34884
Critical_ROB_Stalls_Percent_2_Bucket_2: 28592
Non-critical_ROB_Stalls_Percent_2_Bucket_2: 7680
Critical_ROB_Stalls_Percent_2_Bucket_3: 8606
Non-critical_ROB_Stalls_Percent_2_Bucket_3: 2159
Critical_ROB_Stalls_Percent_2_Bucket_4: 2402
Non-critical_ROB_Stalls_Percent_2_Bucket_4: 721
Critical_ROB_Stalls_Percent_2_Bucket_5: 388
Non-critical_ROB_Stalls_Percent_2_Bucket_5: 518
Critical_ROB_Stalls_Percent_2_Bucket_6: 26
Non-critical_ROB_Stalls_Percent_2_Bucket_6: 439
Critical_ROB_Stalls_Percent_3_Bucket_0: 354758
Non-critical_ROB_Stalls_Percent_3_Bucket_0: 322505
Critical_ROB_Stalls_Percent_3_Bucket_1: 87590
Non-critical_ROB_Stalls_Percent_3_Bucket_1: 31737
Critical_ROB_Stalls_Percent_3_Bucket_2: 29116
Non-critical_ROB_Stalls_Percent_3_Bucket_2: 7156
Critical_ROB_Stalls_Percent_3_Bucket_3: 8940
Non-critical_ROB_Stalls_Percent_3_Bucket_3: 1825
Critical_ROB_Stalls_Percent_3_Bucket_4: 2450
Non-critical_ROB_Stalls_Percent_3_Bucket_4: 673
Critical_ROB_Stalls_Percent_3_Bucket_5: 482
Non-critical_ROB_Stalls_Percent_3_Bucket_5: 424
Critical_ROB_Stalls_Percent_3_Bucket_6: 60
Non-critical_ROB_Stalls_Percent_3_Bucket_6: 405
Critical_ROB_Stalls_Percent_4_Bucket_0: 388876
Non-critical_ROB_Stalls_Percent_4_Bucket_0: 288387
Critical_ROB_Stalls_Percent_4_Bucket_1: 89980
Non-critical_ROB_Stalls_Percent_4_Bucket_1: 29347
Critical_ROB_Stalls_Percent_4_Bucket_2: 29556
Non-critical_ROB_Stalls_Percent_4_Bucket_2: 6716
Critical_ROB_Stalls_Percent_4_Bucket_3: 9030
Non-critical_ROB_Stalls_Percent_4_Bucket_3: 1735
Critical_ROB_Stalls_Percent_4_Bucket_4: 2482
Non-critical_ROB_Stalls_Percent_4_Bucket_4: 641
Critical_ROB_Stalls_Percent_4_Bucket_5: 512
Non-critical_ROB_Stalls_Percent_4_Bucket_5: 394
Critical_ROB_Stalls_Percent_4_Bucket_6: 69
Non-critical_ROB_Stalls_Percent_4_Bucket_6: 396
Critical_ROB_Stalls_Percent_5_Bucket_0: 423036
Non-critical_ROB_Stalls_Percent_5_Bucket_0: 254227
Critical_ROB_Stalls_Percent_5_Bucket_1: 92349
Non-critical_ROB_Stalls_Percent_5_Bucket_1: 26978
Critical_ROB_Stalls_Percent_5_Bucket_2: 30077
Non-critical_ROB_Stalls_Percent_5_Bucket_2: 6195
Critical_ROB_Stalls_Percent_5_Bucket_3: 9231
Non-critical_ROB_Stalls_Percent_5_Bucket_3: 1534
Critical_ROB_Stalls_Percent_5_Bucket_4: 2567
Non-critical_ROB_Stalls_Percent_5_Bucket_4: 556
Critical_ROB_Stalls_Percent_5_Bucket_5: 530
Non-critical_ROB_Stalls_Percent_5_Bucket_5: 376
Critical_ROB_Stalls_Percent_5_Bucket_6: 85
Non-critical_ROB_Stalls_Percent_5_Bucket_6: 380
Critical_ROB_Stalls_Percent_6_Bucket_0: 454237
Non-critical_ROB_Stalls_Percent_6_Bucket_0: 223026
Critical_ROB_Stalls_Percent_6_Bucket_1: 97058
Non-critical_ROB_Stalls_Percent_6_Bucket_1: 22269
Critical_ROB_Stalls_Percent_6_Bucket_2: 30671
Non-critical_ROB_Stalls_Percent_6_Bucket_2: 5601
Critical_ROB_Stalls_Percent_6_Bucket_3: 9417
Non-critical_ROB_Stalls_Percent_6_Bucket_3: 1348
Critical_ROB_Stalls_Percent_6_Bucket_4: 2625
Non-critical_ROB_Stalls_Percent_6_Bucket_4: 498
Critical_ROB_Stalls_Percent_6_Bucket_5: 559
Non-critical_ROB_Stalls_Percent_6_Bucket_5: 347
Critical_ROB_Stalls_Percent_6_Bucket_6: 330
Non-critical_ROB_Stalls_Percent_6_Bucket_6: 135
Critical_ROB_Stalls_Percent_7_Bucket_0: 487925
Non-critical_ROB_Stalls_Percent_7_Bucket_0: 189338
Critical_ROB_Stalls_Percent_7_Bucket_1: 99923
Non-critical_ROB_Stalls_Percent_7_Bucket_1: 19404
Critical_ROB_Stalls_Percent_7_Bucket_2: 31125
Non-critical_ROB_Stalls_Percent_7_Bucket_2: 5147
Critical_ROB_Stalls_Percent_7_Bucket_3: 9518
Non-critical_ROB_Stalls_Percent_7_Bucket_3: 1247
Critical_ROB_Stalls_Percent_7_Bucket_4: 2631
Non-critical_ROB_Stalls_Percent_7_Bucket_4: 492
Critical_ROB_Stalls_Percent_7_Bucket_5: 561
Non-critical_ROB_Stalls_Percent_7_Bucket_5: 345
Critical_ROB_Stalls_Percent_7_Bucket_6: 330
Non-critical_ROB_Stalls_Percent_7_Bucket_6: 135
Critical_ROB_Stalls_Percent_8_Bucket_0: 523168
Non-critical_ROB_Stalls_Percent_8_Bucket_0: 154095
Critical_ROB_Stalls_Percent_8_Bucket_1: 101394
Non-critical_ROB_Stalls_Percent_8_Bucket_1: 17933
Critical_ROB_Stalls_Percent_8_Bucket_2: 31466
Non-critical_ROB_Stalls_Percent_8_Bucket_2: 4806
Critical_ROB_Stalls_Percent_8_Bucket_3: 9662
Non-critical_ROB_Stalls_Percent_8_Bucket_3: 1103
Critical_ROB_Stalls_Percent_8_Bucket_4: 2655
Non-critical_ROB_Stalls_Percent_8_Bucket_4: 468
Critical_ROB_Stalls_Percent_8_Bucket_5: 569
Non-critical_ROB_Stalls_Percent_8_Bucket_5: 337
Critical_ROB_Stalls_Percent_8_Bucket_6: 333
Non-critical_ROB_Stalls_Percent_8_Bucket_6: 132
Average ROB occupancy Load Stall Begin: 31.2767
Average ROB occupancy Load Stall End: 35.2616
Min ROB occupancy Load Stall Begin: 1
Max ROB occupancy Load Stall Begin: 351
Min ROB occupancy Load Stall End: 1
Max ROB occupancy Load Stall End: 352
Average ROB occupancy Critical Load Stall Begin: 77.1133
Average ROB occupancy Critical Load Stall End: 84.6181
Min ROB occupancy Critical Load Stall Begin: 3
Max ROB occupancy Critical Load Stall Begin: 351
Min ROB occupancy Critical Load Stall End: 3
Max ROB occupancy Critical Load Stall End: 352
 ROB Load Stall Begin Bucket Count 0: 698927
 ROB Load Stall End Bucket Count 0: 677263
 ROB Critical Load Stall Begin Bucket Count 0: 5151
 ROB Critical Load Stall End Bucket Count 0: 4657
 ROB Load Stall Begin Bucket Count 1: 103596
 ROB Load Stall End Bucket Count 1: 119327
 ROB Critical Load Stall Begin Bucket Count 1: 20205
 ROB Critical Load Stall End Bucket Count 1: 20492
 ROB Load Stall Begin Bucket Count 2: 32104
 ROB Load Stall End Bucket Count 2: 36272
 ROB Critical Load Stall Begin Bucket Count 2: 2932
 ROB Critical Load Stall End Bucket Count 2: 2650
 ROB Load Stall Begin Bucket Count 3: 9422
 ROB Load Stall End Bucket Count 3: 10765
 ROB Critical Load Stall Begin Bucket Count 3: 926
 ROB Critical Load Stall End Bucket Count 3: 1334
 ROB Load Stall Begin Bucket Count 4: 2824
 ROB Load Stall End Bucket Count 4: 3123
 ROB Critical Load Stall Begin Bucket Count 4: 146
 ROB Critical Load Stall End Bucket Count 4: 225
 ROB Load Stall Begin Bucket Count 5: 818
 ROB Load Stall End Bucket Count 5: 906
 ROB Critical Load Stall Begin Bucket Count 5: 6
 ROB Critical Load Stall End Bucket Count 5: 5
 ROB Load Stall Begin Bucket Count 6: 430
 ROB Load Stall End Bucket Count 6: 465
 ROB Critical Load Stall Begin Bucket Count 6: 201
 ROB Critical Load Stall End Bucket Count 6: 204
PIST Tag Read Accesses: 200504
PIST Read Accesses: 100252
PIST Tag Write Accesses: 200504
PIST Write Accesses: 100252
Criticality detector called times: 354567
Max global_stall_cycles_count: 227400
Threshold Modified: 1 times, factor: -1
ITLB TOTAL     ACCESS:    9962611  HIT:    9376315  MISS:     586296  HIT %:     94.115  MISS %:    5.88496   MPKI: 11.7259
ITLB LOAD TRANSLATION ACCESS:    8170719  HIT:    8094420  MISS:      76299  HIT %:    99.0662  MISS %:    0.93381   MPKI: 1.52598
ITLB TRANSLATION FROM L1D PREFETCHER ACCESS:    1791892  HIT:    1281895  MISS:     509997  HIT %:    71.5386  MISS %:    28.4614   MPKI: 10.1999
ITLB PREFETCH  REQUESTED:          0  ISSUED:          0  USEFUL:     412444  USELESS:      97557
ITLB USEFUL LOAD PREFETCHES:     412444 PREFETCH ISSUED TO LOWER LEVEL:          0  ACCURACY: inf
ITLB TIMELY PREFETCHES:     412444 LATE PREFETCHES: 100 DROPPED PREFETCHES: 3500
ITLB PREFETCHES SAME FILL-ORIGIN LEVEL: 0 DIFFERENT FILL-ORIGIN LEVEL: 0
ITLB AVERAGE MISS LATENCY: 5403.4 cycles
ITLB RQ	ACCESS:   14600415	FORWARD:          0	MERGED:    4598147	TO_CACHE:   10002268

DTLB TOTAL     ACCESS:   11459340  HIT:   11007112  MISS:     452228  HIT %:    96.0536  MISS %:    3.94637   MPKI: 9.04456
DTLB LOAD TRANSLATION ACCESS:   11459340  HIT:   11007112  MISS:     452228  HIT %:    96.0536  MISS %:    3.94637   MPKI: 9.04456
DTLB PREFETCH  REQUESTED:          0  ISSUED:          0  USEFUL:          0  USELESS:          0
DTLB USEFUL LOAD PREFETCHES:          0 PREFETCH ISSUED TO LOWER LEVEL:          0  ACCURACY: -nan
DTLB TIMELY PREFETCHES:          0 LATE PREFETCHES: 0 DROPPED PREFETCHES: 0
DTLB PREFETCHES SAME FILL-ORIGIN LEVEL: 0 DIFFERENT FILL-ORIGIN LEVEL: 0
DTLB AVERAGE MISS LATENCY: 9.30884 cycles
DTLB RQ	ACCESS:   14996255	FORWARD:          0	MERGED:    3513293	TO_CACHE:   11482962

STLB TOTAL     ACCESS:    1038524  HIT:    1036349  MISS:       2175  HIT %:    99.7906  MISS %:   0.209432   MPKI: 0.0435
STLB LOAD TRANSLATION ACCESS:     528427  HIT:     526538  MISS:       1889  HIT %:    99.6425  MISS %:   0.357476   MPKI: 0.03778
STLB TRANSLATION FROM L1D PREFETCHER ACCESS:     510097  HIT:     509811  MISS:        286  HIT %:    99.9439  MISS %:  0.0560678   MPKI: 0.00572
STLB PREFETCH  REQUESTED:          0  ISSUED:          0  USEFUL:        252  USELESS:         34
STLB USEFUL LOAD PREFETCHES:        252 PREFETCH ISSUED TO LOWER LEVEL:          0  ACCURACY: inf
STLB TIMELY PREFETCHES:        252 LATE PREFETCHES: 0 DROPPED PREFETCHES: 3500
STLB PREFETCHES SAME FILL-ORIGIN LEVEL: 0 DIFFERENT FILL-ORIGIN LEVEL: 0
STLB AVERAGE MISS LATENCY: 72.7775 cycles
STLB RQ	ACCESS:    1042024	FORWARD:          0	MERGED:          0	TO_CACHE:    1042024

STLB Hit, L1D data hit: 0
STLB Hit, L2C data hit: 0
STLB Hit, LLC data hit: 0
STLB Hit, LLC data miss: 0
STLB STLB hints to L2: 0
L1D TOTAL     ACCESS:   14562640  HIT:   13661823  MISS:     900817  HIT %:    93.8142  MISS %:    6.18581   MPKI: 18.0163
L1D LOAD      ACCESS:    8086345  HIT:    7437094  MISS:     649251  HIT %:     91.971  MISS %:    8.02898   MPKI: 12.985
L1D RFO       ACCESS:    6476295  HIT:    6224729  MISS:     251566  HIT %:    96.1156  MISS %:    3.88441   MPKI: 5.03132
L1D PREFETCH  REQUESTED:          0  ISSUED:          0  USEFUL:          0  USELESS:          0
L1D USEFUL LOAD PREFETCHES:          0 PREFETCH ISSUED TO LOWER LEVEL:          0  ACCURACY: -nan
L1D TIMELY PREFETCHES:          0 LATE PREFETCHES: 0 DROPPED PREFETCHES: 0
L1D PREFETCHES SAME FILL-ORIGIN LEVEL: 0 DIFFERENT FILL-ORIGIN LEVEL: 0
L1D AVERAGE MISS LATENCY: 21.2458 cycles
L1D RQ	ACCESS:   11594498	FORWARD:          0	MERGED:    3331058	TO_CACHE:    8110671
L1D WQ	ACCESS:    6957599	FORWARD:     152769	MERGED:      72015	TO_CACHE:    6885584

L1D UNIQUE REGIONS ACCESSED: 0
L1D REGIONS CONFLICTS: 0
L1D Cross Page Prefetch Requests: 0
L1D Same Page Prefetch Requests: 0
L1D ROI Sum of L1D PQ occupancy: 0
L1D PREFETCHES PUSHED FROM L2C: 0
L1I TOTAL     ACCESS:   14475313  HIT:   10836776  MISS:    3638537  HIT %:    74.8638  MISS %:    25.1362   MPKI: 72.7707
L1I LOAD      ACCESS:    9572126  HIT:    9340497  MISS:     231629  HIT %:    97.5802  MISS %:    2.41983   MPKI: 4.63258
L1I PREFETCH  ACCESS:    4903187  HIT:    1496279  MISS:    3406908  HIT %:    30.5165  MISS %:    69.4835   MPKI: 68.1382
L1I PREFETCH  REQUESTED:    5126681  ISSUED:    5116847  USEFUL:    2313041  USELESS:    1093890
L1I USEFUL LOAD PREFETCHES:    2313041 PREFETCH ISSUED TO LOWER LEVEL:    3457000  ACCURACY: 66.9089
L1I TIMELY PREFETCHES:    2313041 LATE PREFETCHES: 23877 DROPPED PREFETCHES: 8889
L1I PREFETCHES SAME FILL-ORIGIN LEVEL: 3457000 DIFFERENT FILL-ORIGIN LEVEL: 0
L1I AVERAGE MISS LATENCY: 330938 cycles
L1I RQ	ACCESS:   13674202	FORWARD:          0	MERGED:    4080415	TO_CACHE:    9593787
L1I PQ	ACCESS:    5116847	FORWARD:          0	MERGED:     110219	TO_CACHE:    5006628

BTB TOTAL     ACCESS:    6187548  HIT:    4393594  MISS:    1793954  HIT %:     71.007  MISS %:     28.993   MPKI: 35.8791
BTB BRANCH_DIRECT_JUMP	ACCESS:     531697  HIT:     378294  MISS:     153403
BTB BRANCH_INDIRECT	ACCESS:     199023  HIT:     166589  MISS:      32434
BTB BRANCH_CONDITIONAL	ACCESS:    3068015  HIT:    2579394  MISS:     488621
BTB BRANCH_DIRECT_CALL	ACCESS:    1010905  HIT:     656135  MISS:     354770
BTB BRANCH_INDIRECT_CALL	ACCESS:     183501  HIT:     115238  MISS:      68263
BTB BRANCH_RETURN	ACCESS:    1194407  HIT:     497944  MISS:     696463
BTB BRANCH_OTHER ACCESS:          0  HIT:          0  MISS:          0

L2C TOTAL     ACCESS:    5402713  HIT:    4895919  MISS:     506794  HIT %:    90.6196  MISS %:    9.38036   MPKI: 10.1359
L2C LOAD      ACCESS:     856993  HIT:     769967  MISS:      87026  HIT %:    89.8452  MISS %:    10.1548   MPKI: 1.74052
L2C DATA LOAD MPKI: 1.091
L2C INSTRUCTION LOAD MPKI: 0.64952
L2C RFO       ACCESS:     251566  HIT:     196478  MISS:      55088  HIT %:     78.102  MISS %:     21.898   MPKI: 1.10176
L2C PREFETCH  ACCESS:    3838164  HIT:    3497599  MISS:     340565  HIT %:    91.1269  MISS %:    8.87312   MPKI: 6.8113
L2C DATA PREFETCH MPKI: 1.19786
L2C INSTRUCTION PREFETCH MPKI: 5.61344
L2C WRITEBACK ACCESS:     449929  HIT:     427588  MISS:      22341  HIT %:    95.0345  MISS %:    4.96545   MPKI: 0.44682
L2C LOAD TRANSLATION ACCESS:       2025  HIT:        516  MISS:       1509  HIT %:    25.4815  MISS %:    74.5185   MPKI: 0.03018
L2C TRANSLATION FROM L1D PREFETCHER ACCESS:       4036  HIT:       3771  MISS:        265  HIT %:    93.4341  MISS %:    6.56591   MPKI: 0.0053
L2C PREFETCH  REQUESTED:     414585  ISSUED:     414585  USEFUL:      47124  USELESS:     293853
L2C USEFUL LOAD PREFETCHES:      47124 PREFETCH ISSUED TO LOWER LEVEL:     343304  ACCURACY: 13.7266
L2C TIMELY PREFETCHES:      47124 LATE PREFETCHES: 2739 DROPPED PREFETCHES: 0
L2C PREFETCHES SAME FILL-ORIGIN LEVEL: 62632 DIFFERENT FILL-ORIGIN LEVEL: 0
L2C AVERAGE MISS LATENCY: 35.9372 cycles
L2C RQ	ACCESS:    1114630	FORWARD:          0	MERGED:          0	TO_CACHE:    1114620
L2C WQ	ACCESS:     449929	FORWARD:         10	MERGED:          0	TO_CACHE:     449929
L2C PQ	ACCESS:    3845371	FORWARD:          0	MERGED:          0	TO_CACHE:    3845371

L2C Instructions Evicting Data 110580
L2C Translations Evicting Data 971
L2C Data Evicting Data 72677
L2C Instructions Evicting Instructions 201798
L2C Translations Evicting Instructions 776
L2C Data Evicting Instructions 95941
L2C Instructions Evicting Translations 770
L2C Translations Evicting Translations 27
L2C Data Evicting Translations 913
L2C Dense regions hint from L2: 0
PSCL5 TOTAL     ACCESS:       5675  HIT:       5675  MISS:          0  HIT %:        100  MISS %:          0   MPKI: 0
PSCL5 LOAD TRANSLATION ACCESS:       1889  HIT:       1889  MISS:          0  HIT %:        100  MISS %:          0   MPKI: 0
PSCL5 TRANSLATION FROM L1D PREFETCHER ACCESS:       3786  HIT:       3786  MISS:          0  HIT %:        100  MISS %:          0   MPKI: 0
PSCL5 PREFETCH  REQUESTED:          0  ISSUED:          0  USEFUL:          0  USELESS:          0
PSCL5 USEFUL LOAD PREFETCHES:          0 PREFETCH ISSUED TO LOWER LEVEL:          0  ACCURACY: -nan
PSCL5 TIMELY PREFETCHES:          0 LATE PREFETCHES: 0 DROPPED PREFETCHES: 0
PSCL5 PREFETCHES SAME FILL-ORIGIN LEVEL: 0 DIFFERENT FILL-ORIGIN LEVEL: 0

PSCL4 TOTAL     ACCESS:       3321  HIT:       3308  MISS:         13  HIT %:    99.6086  MISS %:   0.391448   MPKI: 0.00026
PSCL4 LOAD TRANSLATION ACCESS:       1176  HIT:       1163  MISS:         13  HIT %:    98.8946  MISS %:    1.10544   MPKI: 0.00026
PSCL4 TRANSLATION FROM L1D PREFETCHER ACCESS:       2145  HIT:       2145  MISS:          0  HIT %:        100  MISS %:          0   MPKI: 0
PSCL4 PREFETCH  REQUESTED:          0  ISSUED:          0  USEFUL:          0  USELESS:          0
PSCL4 USEFUL LOAD PREFETCHES:          0 PREFETCH ISSUED TO LOWER LEVEL:          0  ACCURACY: -nan
PSCL4 TIMELY PREFETCHES:          0 LATE PREFETCHES: 0 DROPPED PREFETCHES: 0
PSCL4 PREFETCHES SAME FILL-ORIGIN LEVEL: 0 DIFFERENT FILL-ORIGIN LEVEL: 0

PSCL3 TOTAL     ACCESS:       5137  HIT:       5114  MISS:         23  HIT %:    99.5523  MISS %:   0.447732   MPKI: 0.00046
PSCL3 LOAD TRANSLATION ACCESS:       1688  HIT:       1665  MISS:         23  HIT %:    98.6374  MISS %:    1.36256   MPKI: 0.00046
PSCL3 TRANSLATION FROM L1D PREFETCHER ACCESS:       3449  HIT:       3449  MISS:          0  HIT %:        100  MISS %:          0   MPKI: 0
PSCL3 PREFETCH  REQUESTED:          0  ISSUED:          0  USEFUL:          0  USELESS:          0
PSCL3 USEFUL LOAD PREFETCHES:          0 PREFETCH ISSUED TO LOWER LEVEL:          0  ACCURACY: -nan
PSCL3 TIMELY PREFETCHES:          0 LATE PREFETCHES: 0 DROPPED PREFETCHES: 0
PSCL3 PREFETCHES SAME FILL-ORIGIN LEVEL: 0 DIFFERENT FILL-ORIGIN LEVEL: 0

PSCL2 TOTAL     ACCESS:       5461  HIT:       5329  MISS:        132  HIT %:    97.5829  MISS %:    2.41714   MPKI: 0.00264
PSCL2 LOAD TRANSLATION ACCESS:       1913  HIT:       1781  MISS:        132  HIT %:    93.0998  MISS %:    6.90016   MPKI: 0.00264
PSCL2 TRANSLATION FROM L1D PREFETCHER ACCESS:       3548  HIT:       3548  MISS:          0  HIT %:        100  MISS %:          0   MPKI: 0
PSCL2 PREFETCH  REQUESTED:          0  ISSUED:          0  USEFUL:          0  USELESS:          0
PSCL2 USEFUL LOAD PREFETCHES:          0 PREFETCH ISSUED TO LOWER LEVEL:          0  ACCURACY: -nan
PSCL2 TIMELY PREFETCHES:          0 LATE PREFETCHES: 0 DROPPED PREFETCHES: 0
PSCL2 PREFETCHES SAME FILL-ORIGIN LEVEL: 0 DIFFERENT FILL-ORIGIN LEVEL: 0

LLC TOTAL     ACCESS:     563390  HIT:     541634  MISS:      21756  HIT %:    96.1384  MISS %:    3.86162   MPKI: 0.43512
LLC LOAD      ACCESS:      84313  HIT:      81570  MISS:       2743  HIT %:    96.7466  MISS %:    3.25335   MPKI: 0.05486
LLC RFO       ACCESS:      55062  HIT:      43733  MISS:      11329  HIT %:     79.425  MISS %:     20.575   MPKI: 0.22658
LLC PREFETCH  ACCESS:     343304  HIT:     336015  MISS:       7289  HIT %:    97.8768  MISS %:    2.12319   MPKI: 0.14578
LLC WRITEBACK ACCESS:      78937  HIT:      78669  MISS:        268  HIT %:    99.6605  MISS %:   0.339511   MPKI: 0.00536
LLC LOAD TRANSLATION ACCESS:       1509  HIT:       1394  MISS:        115  HIT %:    92.3791  MISS %:    7.62094   MPKI: 0.0023
LLC TRANSLATION FROM L1D PREFETCHER ACCESS:        265  HIT:        253  MISS:         12  HIT %:    95.4717  MISS %:     4.5283   MPKI: 0.00024
LLC PREFETCH  REQUESTED:          0  ISSUED:          0  USEFUL:        687  USELESS:       6550
LLC USEFUL LOAD PREFETCHES:        687 PREFETCH ISSUED TO LOWER LEVEL:       7289  ACCURACY: 9.42516
LLC TIMELY PREFETCHES:        687 LATE PREFETCHES: 0 DROPPED PREFETCHES: 0
LLC PREFETCHES SAME FILL-ORIGIN LEVEL: 0 DIFFERENT FILL-ORIGIN LEVEL: 0
LLC AVERAGE MISS LATENCY: 170.946 cycles
LLC RQ	ACCESS:     141149	FORWARD:          0	MERGED:          0	TO_CACHE:     141149
LLC WQ	ACCESS:      78937	FORWARD:          0	MERGED:          0	TO_CACHE:      78937
LLC PQ	ACCESS:     343304	FORWARD:          0	MERGED:          0	TO_CACHE:     343304

LLC Dense regions hint to LLC: 0

RAW hits: 1146147
Loads Generated: 12740644
Loads sent to L1D: 11594498
Stores Generated: 6957596
Stores sent to L1D: 6957599
Major fault: 0 Minor fault: 2563
Allocated PAGES: 2563
I-Shadow cache 408 bytes
Touched + WorthPF tables 6144 bytes 
MMA filter 174 bytes 
FNL filter 272 bytes 
TOTAL PREFETCHER STORAGE SIZE: 25174 bytes
CPU 0 L1I next line prefetcher final stats
[Bingo] PHT Access: 201748
[Bingo] PHT Hit PC+Addr: 125980
[Bingo] PHT Hit PC+Offs: 8945
[Bingo] PHT Miss: 66823
[Bingo] Prefetch PC+Addr: 0
[Bingo] Prefetch PC+Offs: 0
[Bingo] Useful PC+Addr: 0
[Bingo] Useful PC+Offs: 0
[Bingo] Useless PC+Addr: 0
[Bingo] Useless PC+Offs: 0
[Bingo] L1 Prefetch per Region: 0
[Bingo] L2 Prefetch per Region: 4.09181
[Bingo] L3 Prefetch per Region: 0
[Bingo] No Prefetch per Region: 27.9082
[Bingo] Number of Voters Mean: 6.16646
[Bingo] Number of Voters SD: 9.04316
PHT read accesses: 582982
PHT write accesses: 103037
AT read accesses: 471168
AT write accesses: 548089
FT read accesses: 325396
FT write accesses: 201748
PS read accesses: 274800
PS write accesses: 134925
PHT tag read accesses: 3102411
PHT tag write accesses: 229017
AT tag read accesses: 23243975
AT tag write accesses: 574206
FT tag read accesses: 20250467
FT tag write accesses: 421664
PS tag read accesses: 14844964
PS tag write accesses: 409409

DRAM Statistics
 CHANNEL 0
 RQ ROW_BUFFER_HIT:       8853  ROW_BUFFER_MISS:      12630
 DBUS_CONGESTED:          1
 WQ ROW_BUFFER_HIT:        939  ROW_BUFFER_MISS:      10219  FULL:          0

 AVG_CONGESTED_CYCLE: 3
 All warmup complete: 2
Channel 0 Bank busy for read cycles: 0
Channel 0 Bank busy for write cycles: 0
Channel 0
Rank 0
0banks busy for read cycles: 75735479
0banks busy for write cycles: 2535
1banks busy for read cycles: 387915
1banks busy for write cycles: 271354
2banks busy for read cycles: 134652
2banks busy for write cycles: 83925
3banks busy for read cycles: 52101
3banks busy for write cycles: 47694
4banks busy for read cycles: 41916
4banks busy for write cycles: 35075
5banks busy for read cycles: 22604
5banks busy for write cycles: 28481
6banks busy for read cycles: 26740
6banks busy for write cycles: 28228
7banks busy for read cycles: 38615
7banks busy for write cycles: 33204
8banks busy for read cycles: 103322
8banks busy for write cycles: 66429

CPU 0 Branch Prediction Accuracy: 99.8142% MPKI: 0.34676 Average ROB Occupancy at Mispredict: 67.5752
Branch types
NOT_BRANCH: 40668669 81.3373%
BRANCH_DIRECT_JUMP: 531697 1.06339%
BRANCH_INDIRECT: 199023 0.398046%
BRANCH_CONDITIONAL: 6211452 12.4229%
BRANCH_DIRECT_CALL: 1010905 2.02181%
BRANCH_INDIRECT_CALL: 183501 0.367002%
BRANCH_RETURN: 1194407 2.38881%
BRANCH_OTHER: 0 0%

DRAM PAGES: 1048576
Allocated PAGES: 2563
