
*** ChampSim Multicore Out-of-Order Simulator ***

Warmup Instructions: 50000000
Simulation Instructions: 50000000
Number of CPUs: 1
LLC sets: 2048
LLC ways: 16
Off-chip DRAM Size: 4096 MB Channels: 1 Width: 64-bit Data Rate: 6400 MT/s
CPU 0 runs ../../IPC-traces//server_013.champsimtrace.xz
.xz
NUM_OF_IPS_IN_CRITICAL_IP_TRAINING: 64
NUM_OF_CRITICAL_IP_TRAINING_TABLE_WAYS: 2
NUM_OF_CRITICAL_IP_TRAINING_TABLE_SETS: 32
WOBBLY_CRITICAL_IP_CACHE_SETS: 32
WOBBLY_CRITICAL_IP_CACHE_WAYS: 4
BTB has LRU replacement policy
ITLB has LRU replacement policy
DTLB has LRU replacement policy
STLB has LRU replacement policy
CPU 0 L1I next line prefetcher
L1I has LRU replacement policy
L1D has LRU replacement policy
Bingo PHT WAYS: 16 and PHT_SIZE: 16384
Initialize SRRIP state for L2C
Initialize DRRIP state for LLC
Heartbeat CPU 0 instructions: 10000000 cycles: 2765507 heartbeat IPC: 3.61597 cumulative IPC: 3.61597 (Simulation time: 0 hr 4 min 25 sec) 
Heartbeat CPU 0 instructions: 20000001 cycles: 5521903 heartbeat IPC: 3.62793 cumulative IPC: 3.62194 (Simulation time: 0 hr 8 min 27 sec) 
Heartbeat CPU 0 instructions: 30000002 cycles: 8279235 heartbeat IPC: 3.62669 cumulative IPC: 3.62352 (Simulation time: 0 hr 12 min 13 sec) 
Heartbeat CPU 0 instructions: 40000003 cycles: 11035866 heartbeat IPC: 3.62762 cumulative IPC: 3.62455 (Simulation time: 0 hr 15 min 13 sec) 
Heartbeat CPU 0 instructions: 50000000 cycles: 13794135 heartbeat IPC: 3.62546 cumulative IPC: 3.62473 (Simulation time: 0 hr 18 min 12 sec) 

Warmup complete CPU 0 instructions: 50000004 cycles: 13794136 (Simulation time: 0 hr 18 min 12 sec) 

% increase in all ip prefetch 366.639
% increase in all ip prefetch 5.0464
% increase in all ip prefetch -2.71406
Heartbeat CPU 0 instructions: 60000000 cycles: 27817021 heartbeat IPC: 0.71312 cumulative IPC: 0.71312 (Simulation time: 0 hr 21 min 29 sec) 
Heartbeat CPU 0 instructions: 70000003 cycles: 42064366 heartbeat IPC: 0.701885 cumulative IPC: 0.707458 (Simulation time: 0 hr 24 min 41 sec) 
Heartbeat CPU 0 instructions: 80000003 cycles: 55779483 heartbeat IPC: 0.729122 cumulative IPC: 0.714535 (Simulation time: 0 hr 27 min 48 sec) 
Heartbeat CPU 0 instructions: 90000003 cycles: 69580099 heartbeat IPC: 0.724605 cumulative IPC: 0.717026 (Simulation time: 0 hr 30 min 57 sec) 
Heartbeat CPU 0 instructions: 100000000 cycles: 83389870 heartbeat IPC: 0.724125 cumulative IPC: 0.718435 (Simulation time: 0 hr 33 min 44 sec) 
Finished CPU 0 instructions: 50000000 cycles: 69595735 cumulative IPC: 0.718435 (Simulation time: 0 hr 33 min 44 sec) 

ChampSim completed all CPUs

Region of Interest Statistics

CPU 0 cumulative IPC: 0.718435 instructions: 50000000 cycles: 69595735

CPU 0 Average Load ROB stall cycles: 5.2837e+06
CPU 0 Fraction of times ROB stalled by Loads: 10.8096
CPU 0 Percentage of Load stall cycles in Total stall cycles: 6.92566e+07
 Total stall cycles: 38054361
 Total load stall cycles: 26355147204250
CPU 0 NUM of IPS identified critical: 0
CPU 0 Num of Load IPs stalling ROB: 11034
Threshold modification factor: -2
Max PIST entries: 64
Min PIST entries: 0
Avg PIST entries: 32
Trouble in retire width: 0.786002
MaC = Marked as critical.
lt_50_percent_before_Mac: 0
gt_90_percent_before_Mac: 0
gt_75_percent_before_Mac: 0
gt_50_percent_before_Mac: 0
stall_proportion_bin_same_before_after: 0
stall_proportion_bin_lower_before_after: 0
stall_proportion_bin_upper_before_after: 0
average_stall_proportion_before: -nan
average_stall_proportion_after: -nan
Critical IP stalls, total frequency: 0
Non-critical IP stalls, total frequency: 512432
Critical_IP_ROB_Stalls_Bucket_0: 0
Non-critical_IP_ROB_Stalls_Bucket_0: 373859
Critical_IP_ROB_Stalls_Bucket_1: 0
Non-critical_IP_ROB_Stalls_Bucket_1: 98632
Critical_IP_ROB_Stalls_Bucket_2: 0
Non-critical_IP_ROB_Stalls_Bucket_2: 45184
Critical_IP_ROB_Stalls_Bucket_3: 0
Non-critical_IP_ROB_Stalls_Bucket_3: 9782
Critical_IP_ROB_Stalls_Bucket_4: 0
Non-critical_IP_ROB_Stalls_Bucket_4: 4999
Critical_IP_ROB_Stalls_Bucket_5: 0
Non-critical_IP_ROB_Stalls_Bucket_5: 2597
Critical_IP_ROB_Stalls_Bucket_6: 0
Non-critical_IP_ROB_Stalls_Bucket_6: 4130
0 => IPs accounting for >50 percent of stalls, 1 => 55, 2 => 60, 3 => 65 and so on till 90.
percent50: 50.0453 num IPs:224
percent55: 55.0243 num IPs:320
percent60: 60.0073 num IPs:452
percent65: 65.0063 num IPs:639
percent70: 70.0171 num IPs:880
percent75: 75.0045 num IPs:1198
percent80: 80.0063 num IPs:1608
percent85: 85.008 num IPs:2121
percent90: 90.0031 num IPs:2814
Critical_ROB_Stalls_Percent_0_Bucket_0: 176422
Non-critical_ROB_Stalls_Percent_0_Bucket_0: 197437
Critical_ROB_Stalls_Percent_0_Bucket_1: 44994
Non-critical_ROB_Stalls_Percent_0_Bucket_1: 53638
Critical_ROB_Stalls_Percent_0_Bucket_2: 29068
Non-critical_ROB_Stalls_Percent_0_Bucket_2: 16116
Critical_ROB_Stalls_Percent_0_Bucket_3: 2745
Non-critical_ROB_Stalls_Percent_0_Bucket_3: 7037
Critical_ROB_Stalls_Percent_0_Bucket_4: 1274
Non-critical_ROB_Stalls_Percent_0_Bucket_4: 3725
Critical_ROB_Stalls_Percent_0_Bucket_5: 593
Non-critical_ROB_Stalls_Percent_0_Bucket_5: 2004
Critical_ROB_Stalls_Percent_0_Bucket_6: 1352
Non-critical_ROB_Stalls_Percent_0_Bucket_6: 2778
Critical_ROB_Stalls_Percent_1_Bucket_0: 191303
Non-critical_ROB_Stalls_Percent_1_Bucket_0: 182556
Critical_ROB_Stalls_Percent_1_Bucket_1: 51371
Non-critical_ROB_Stalls_Percent_1_Bucket_1: 47261
Critical_ROB_Stalls_Percent_1_Bucket_2: 30975
Non-critical_ROB_Stalls_Percent_1_Bucket_2: 14209
Critical_ROB_Stalls_Percent_1_Bucket_3: 3517
Non-critical_ROB_Stalls_Percent_1_Bucket_3: 6265
Critical_ROB_Stalls_Percent_1_Bucket_4: 1856
Non-critical_ROB_Stalls_Percent_1_Bucket_4: 3143
Critical_ROB_Stalls_Percent_1_Bucket_5: 981
Non-critical_ROB_Stalls_Percent_1_Bucket_5: 1616
Critical_ROB_Stalls_Percent_1_Bucket_6: 1959
Non-critical_ROB_Stalls_Percent_1_Bucket_6: 2171
Critical_ROB_Stalls_Percent_2_Bucket_0: 208644
Non-critical_ROB_Stalls_Percent_2_Bucket_0: 165215
Critical_ROB_Stalls_Percent_2_Bucket_1: 56792
Non-critical_ROB_Stalls_Percent_2_Bucket_1: 41840
Critical_ROB_Stalls_Percent_2_Bucket_2: 32405
Non-critical_ROB_Stalls_Percent_2_Bucket_2: 12779
Critical_ROB_Stalls_Percent_2_Bucket_3: 4021
Non-critical_ROB_Stalls_Percent_2_Bucket_3: 5761
Critical_ROB_Stalls_Percent_2_Bucket_4: 2225
Non-critical_ROB_Stalls_Percent_2_Bucket_4: 2774
Critical_ROB_Stalls_Percent_2_Bucket_5: 1234
Non-critical_ROB_Stalls_Percent_2_Bucket_5: 1363
Critical_ROB_Stalls_Percent_2_Bucket_6: 2176
Non-critical_ROB_Stalls_Percent_2_Bucket_6: 1954
Critical_ROB_Stalls_Percent_3_Bucket_0: 227219
Non-critical_ROB_Stalls_Percent_3_Bucket_0: 146640
Critical_ROB_Stalls_Percent_3_Bucket_1: 61303
Non-critical_ROB_Stalls_Percent_3_Bucket_1: 37329
Critical_ROB_Stalls_Percent_3_Bucket_2: 33611
Non-critical_ROB_Stalls_Percent_3_Bucket_2: 11573
Critical_ROB_Stalls_Percent_3_Bucket_3: 4423
Non-critical_ROB_Stalls_Percent_3_Bucket_3: 5359
Critical_ROB_Stalls_Percent_3_Bucket_4: 2572
Non-critical_ROB_Stalls_Percent_3_Bucket_4: 2427
Critical_ROB_Stalls_Percent_3_Bucket_5: 1385
Non-critical_ROB_Stalls_Percent_3_Bucket_5: 1212
Critical_ROB_Stalls_Percent_3_Bucket_6: 2600
Non-critical_ROB_Stalls_Percent_3_Bucket_6: 1530
Critical_ROB_Stalls_Percent_4_Bucket_0: 245541
Non-critical_ROB_Stalls_Percent_4_Bucket_0: 128318
Critical_ROB_Stalls_Percent_4_Bucket_1: 66144
Non-critical_ROB_Stalls_Percent_4_Bucket_1: 32488
Critical_ROB_Stalls_Percent_4_Bucket_2: 34754
Non-critical_ROB_Stalls_Percent_4_Bucket_2: 10430
Critical_ROB_Stalls_Percent_4_Bucket_3: 5012
Non-critical_ROB_Stalls_Percent_4_Bucket_3: 4770
Critical_ROB_Stalls_Percent_4_Bucket_4: 2896
Non-critical_ROB_Stalls_Percent_4_Bucket_4: 2103
Critical_ROB_Stalls_Percent_4_Bucket_5: 1582
Non-critical_ROB_Stalls_Percent_4_Bucket_5: 1015
Critical_ROB_Stalls_Percent_4_Bucket_6: 2861
Non-critical_ROB_Stalls_Percent_4_Bucket_6: 1269
Critical_ROB_Stalls_Percent_5_Bucket_0: 263567
Non-critical_ROB_Stalls_Percent_5_Bucket_0: 110292
Critical_ROB_Stalls_Percent_5_Bucket_1: 71329
Non-critical_ROB_Stalls_Percent_5_Bucket_1: 27303
Critical_ROB_Stalls_Percent_5_Bucket_2: 35976
Non-critical_ROB_Stalls_Percent_5_Bucket_2: 9208
Critical_ROB_Stalls_Percent_5_Bucket_3: 5651
Non-critical_ROB_Stalls_Percent_5_Bucket_3: 4131
Critical_ROB_Stalls_Percent_5_Bucket_4: 3128
Non-critical_ROB_Stalls_Percent_5_Bucket_4: 1871
Critical_ROB_Stalls_Percent_5_Bucket_5: 1674
Non-critical_ROB_Stalls_Percent_5_Bucket_5: 923
Critical_ROB_Stalls_Percent_5_Bucket_6: 3022
Non-critical_ROB_Stalls_Percent_5_Bucket_6: 1108
Critical_ROB_Stalls_Percent_6_Bucket_0: 284241
Non-critical_ROB_Stalls_Percent_6_Bucket_0: 89618
Critical_ROB_Stalls_Percent_6_Bucket_1: 74871
Non-critical_ROB_Stalls_Percent_6_Bucket_1: 23761
Critical_ROB_Stalls_Percent_6_Bucket_2: 36879
Non-critical_ROB_Stalls_Percent_6_Bucket_2: 8305
Critical_ROB_Stalls_Percent_6_Bucket_3: 5886
Non-critical_ROB_Stalls_Percent_6_Bucket_3: 3896
Critical_ROB_Stalls_Percent_6_Bucket_4: 3256
Non-critical_ROB_Stalls_Percent_6_Bucket_4: 1743
Critical_ROB_Stalls_Percent_6_Bucket_5: 1746
Non-critical_ROB_Stalls_Percent_6_Bucket_5: 851
Critical_ROB_Stalls_Percent_6_Bucket_6: 3099
Non-critical_ROB_Stalls_Percent_6_Bucket_6: 1031
Critical_ROB_Stalls_Percent_7_Bucket_0: 303698
Non-critical_ROB_Stalls_Percent_7_Bucket_0: 70161
Critical_ROB_Stalls_Percent_7_Bucket_1: 78837
Non-critical_ROB_Stalls_Percent_7_Bucket_1: 19795
Critical_ROB_Stalls_Percent_7_Bucket_2: 38024
Non-critical_ROB_Stalls_Percent_7_Bucket_2: 7160
Critical_ROB_Stalls_Percent_7_Bucket_3: 6363
Non-critical_ROB_Stalls_Percent_7_Bucket_3: 3419
Critical_ROB_Stalls_Percent_7_Bucket_4: 3526
Non-critical_ROB_Stalls_Percent_7_Bucket_4: 1473
Critical_ROB_Stalls_Percent_7_Bucket_5: 1871
Non-critical_ROB_Stalls_Percent_7_Bucket_5: 726
Critical_ROB_Stalls_Percent_7_Bucket_6: 3291
Non-critical_ROB_Stalls_Percent_7_Bucket_6: 839
Critical_ROB_Stalls_Percent_8_Bucket_0: 322553
Non-critical_ROB_Stalls_Percent_8_Bucket_0: 51306
Critical_ROB_Stalls_Percent_8_Bucket_1: 83018
Non-critical_ROB_Stalls_Percent_8_Bucket_1: 15614
Critical_ROB_Stalls_Percent_8_Bucket_2: 39360
Non-critical_ROB_Stalls_Percent_8_Bucket_2: 5824
Critical_ROB_Stalls_Percent_8_Bucket_3: 7042
Non-critical_ROB_Stalls_Percent_8_Bucket_3: 2740
Critical_ROB_Stalls_Percent_8_Bucket_4: 3765
Non-critical_ROB_Stalls_Percent_8_Bucket_4: 1234
Critical_ROB_Stalls_Percent_8_Bucket_5: 2017
Non-critical_ROB_Stalls_Percent_8_Bucket_5: 580
Critical_ROB_Stalls_Percent_8_Bucket_6: 3450
Non-critical_ROB_Stalls_Percent_8_Bucket_6: 680
Average ROB occupancy Load Stall Begin: 43.1908
Average ROB occupancy Load Stall End: 48.871
Min ROB occupancy Load Stall Begin: 1
Max ROB occupancy Load Stall Begin: 351
Min ROB occupancy Load Stall End: 1
Max ROB occupancy Load Stall End: 352
Average ROB occupancy Critical Load Stall Begin: -nan
Average ROB occupancy Critical Load Stall End: -nan
Min ROB occupancy Critical Load Stall Begin: 400
Max ROB occupancy Critical Load Stall Begin: 0
Min ROB occupancy Critical Load Stall End: 400
Max ROB occupancy Critical Load Stall End: 0
 ROB Load Stall Begin Bucket Count 0: 397864
 ROB Load Stall End Bucket Count 0: 373859
 ROB Critical Load Stall Begin Bucket Count 0: 0
 ROB Critical Load Stall End Bucket Count 0: 0
 ROB Load Stall Begin Bucket Count 1: 83619
 ROB Load Stall End Bucket Count 1: 98632
 ROB Critical Load Stall Begin Bucket Count 1: 0
 ROB Critical Load Stall End Bucket Count 1: 0
 ROB Load Stall Begin Bucket Count 2: 40921
 ROB Load Stall End Bucket Count 2: 45184
 ROB Critical Load Stall Begin Bucket Count 2: 0
 ROB Critical Load Stall End Bucket Count 2: 0
 ROB Load Stall Begin Bucket Count 3: 7152
 ROB Load Stall End Bucket Count 3: 9782
 ROB Critical Load Stall Begin Bucket Count 3: 0
 ROB Critical Load Stall End Bucket Count 3: 0
 ROB Load Stall Begin Bucket Count 4: 3966
 ROB Load Stall End Bucket Count 4: 4999
 ROB Critical Load Stall Begin Bucket Count 4: 0
 ROB Critical Load Stall End Bucket Count 4: 0
 ROB Load Stall Begin Bucket Count 5: 2232
 ROB Load Stall End Bucket Count 5: 2597
 ROB Critical Load Stall Begin Bucket Count 5: 0
 ROB Critical Load Stall End Bucket Count 5: 0
 ROB Load Stall Begin Bucket Count 6: 3429
 ROB Load Stall End Bucket Count 6: 4130
 ROB Critical Load Stall Begin Bucket Count 6: 0
 ROB Critical Load Stall End Bucket Count 6: 0
PIST Tag Read Accesses: 335306
PIST Read Accesses: 167653
PIST Tag Write Accesses: 335306
PIST Write Accesses: 167653
Criticality detector called times: 268092
Max global_stall_cycles_count: 303788
Threshold Modified: 2 times, factor: -2
ITLB TOTAL     ACCESS:    8970997  HIT:    8713981  MISS:     257016  HIT %:     97.135  MISS %:    2.86497   MPKI: 5.14032
ITLB LOAD TRANSLATION ACCESS:    7637938  HIT:    7559826  MISS:      78112  HIT %:    98.9773  MISS %:    1.02268   MPKI: 1.56224
ITLB TRANSLATION FROM L1D PREFETCHER ACCESS:    1333059  HIT:    1154155  MISS:     178904  HIT %:    86.5794  MISS %:    13.4206   MPKI: 3.57808
ITLB PREFETCH  REQUESTED:          0  ISSUED:          0  USEFUL:     141524  USELESS:      37395
ITLB USEFUL LOAD PREFETCHES:     141524 PREFETCH ISSUED TO LOWER LEVEL:          0  ACCURACY: inf
ITLB TIMELY PREFETCHES:     141524 LATE PREFETCHES: 912 DROPPED PREFETCHES: 6573
ITLB PREFETCHES SAME FILL-ORIGIN LEVEL: 0 DIFFERENT FILL-ORIGIN LEVEL: 0
ITLB AVERAGE MISS LATENCY: 174262 cycles
ITLB RQ	ACCESS:   12539855	FORWARD:          0	MERGED:    3527860	TO_CACHE:    9011995

DTLB TOTAL     ACCESS:    9461244  HIT:    8805232  MISS:     656012  HIT %:    93.0663  MISS %:    6.93368   MPKI: 13.1202
DTLB LOAD TRANSLATION ACCESS:    9461244  HIT:    8805232  MISS:     656012  HIT %:    93.0663  MISS %:    6.93368   MPKI: 13.1202
DTLB PREFETCH  REQUESTED:          0  ISSUED:          0  USEFUL:          0  USELESS:          0
DTLB USEFUL LOAD PREFETCHES:          0 PREFETCH ISSUED TO LOWER LEVEL:          0  ACCURACY: -nan
DTLB TIMELY PREFETCHES:          0 LATE PREFETCHES: 0 DROPPED PREFETCHES: 0
DTLB PREFETCHES SAME FILL-ORIGIN LEVEL: 0 DIFFERENT FILL-ORIGIN LEVEL: 0
DTLB AVERAGE MISS LATENCY: 15.4813 cycles
DTLB RQ	ACCESS:   11950330	FORWARD:          0	MERGED:    2446976	TO_CACHE:    9503354

STLB TOTAL     ACCESS:     913016  HIT:     786929  MISS:     126087  HIT %:    86.1901  MISS %:    13.8099   MPKI: 2.52174
STLB LOAD TRANSLATION ACCESS:     733212  HIT:     636431  MISS:      96781  HIT %:    86.8004  MISS %:    13.1996   MPKI: 1.93562
STLB TRANSLATION FROM L1D PREFETCHER ACCESS:     179804  HIT:     150498  MISS:      29306  HIT %:    83.7011  MISS %:    16.2989   MPKI: 0.58612
STLB PREFETCH  REQUESTED:          0  ISSUED:          0  USEFUL:      16181  USELESS:      13119
STLB USEFUL LOAD PREFETCHES:      16181 PREFETCH ISSUED TO LOWER LEVEL:          0  ACCURACY: inf
STLB TIMELY PREFETCHES:      16181 LATE PREFETCHES: 12 DROPPED PREFETCHES: 6573
STLB PREFETCHES SAME FILL-ORIGIN LEVEL: 0 DIFFERENT FILL-ORIGIN LEVEL: 0
STLB AVERAGE MISS LATENCY: 48.6982 cycles
STLB RQ	ACCESS:     919602	FORWARD:          0	MERGED:          0	TO_CACHE:     919602

STLB Hit, L1D data hit: 0
STLB Hit, L2C data hit: 0
STLB Hit, LLC data hit: 0
STLB Hit, LLC data miss: 0
STLB STLB hints to L2: 0
L1D TOTAL     ACCESS:   11807930  HIT:   11161039  MISS:     646891  HIT %:    94.5216  MISS %:    5.47845   MPKI: 12.9378
L1D LOAD      ACCESS:    6854589  HIT:    6296443  MISS:     558146  HIT %:    91.8573  MISS %:    8.14266   MPKI: 11.1629
L1D RFO       ACCESS:    4953341  HIT:    4864596  MISS:      88745  HIT %:    98.2084  MISS %:    1.79162   MPKI: 1.7749
L1D PREFETCH  REQUESTED:          0  ISSUED:          0  USEFUL:          0  USELESS:          0
L1D USEFUL LOAD PREFETCHES:          0 PREFETCH ISSUED TO LOWER LEVEL:          0  ACCURACY: -nan
L1D TIMELY PREFETCHES:          0 LATE PREFETCHES: 0 DROPPED PREFETCHES: 0
L1D PREFETCHES SAME FILL-ORIGIN LEVEL: 0 DIFFERENT FILL-ORIGIN LEVEL: 0
L1D AVERAGE MISS LATENCY: 32.6625 cycles
L1D RQ	ACCESS:   10493345	FORWARD:          0	MERGED:    3523642	TO_CACHE:    6881156
L1D WQ	ACCESS:    5191026	FORWARD:      88547	MERGED:     121852	TO_CACHE:    5069174

L1D UNIQUE REGIONS ACCESSED: 0
L1D REGIONS CONFLICTS: 0
L1D Cross Page Prefetch Requests: 0
L1D Same Page Prefetch Requests: 0
L1D ROI Sum of L1D PQ occupancy: 0
L1D PREFETCHES PUSHED FROM L2C: 0
L1I TOTAL     ACCESS:   12372173  HIT:   10247748  MISS:    2124425  HIT %:     82.829  MISS %:     17.171   MPKI: 42.4885
L1I LOAD      ACCESS:    9388306  HIT:    9108523  MISS:     279783  HIT %:    97.0199  MISS %:    2.98012   MPKI: 5.59566
L1I PREFETCH  ACCESS:    2983867  HIT:    1139225  MISS:    1844642  HIT %:    38.1795  MISS %:    61.8205   MPKI: 36.8928
L1I PREFETCH  REQUESTED:    3222361  ISSUED:    3212720  USEFUL:    1218045  USELESS:     626635
L1I USEFUL LOAD PREFETCHES:    1218045 PREFETCH ISSUED TO LOWER LEVEL:    1921422  ACCURACY: 63.3929
L1I TIMELY PREFETCHES:    1218045 LATE PREFETCHES: 36909 DROPPED PREFETCHES: 21503
L1I PREFETCHES SAME FILL-ORIGIN LEVEL: 1921422 DIFFERENT FILL-ORIGIN LEVEL: 0
L1I AVERAGE MISS LATENCY: 845239 cycles
L1I RQ	ACCESS:   13653786	FORWARD:          0	MERGED:    4237159	TO_CACHE:    9416627
L1I PQ	ACCESS:    3212720	FORWARD:          0	MERGED:      89492	TO_CACHE:    3123228

BTB TOTAL     ACCESS:    4435962  HIT:    3610048  MISS:     825914  HIT %:    81.3814  MISS %:    18.6186   MPKI: 16.5183
BTB BRANCH_DIRECT_JUMP	ACCESS:     463697  HIT:     397748  MISS:      65949
BTB BRANCH_INDIRECT	ACCESS:     146542  HIT:     112914  MISS:      33628
BTB BRANCH_CONDITIONAL	ACCESS:    2131259  HIT:    1856340  MISS:     274919
BTB BRANCH_DIRECT_CALL	ACCESS:     665004  HIT:     539799  MISS:     125205
BTB BRANCH_INDIRECT_CALL	ACCESS:     165150  HIT:     152297  MISS:      12853
BTB BRANCH_RETURN	ACCESS:     864310  HIT:     550950  MISS:     313360
BTB BRANCH_OTHER ACCESS:          0  HIT:          0  MISS:          0

L2C TOTAL     ACCESS:    3553485  HIT:    2230943  MISS:    1322542  HIT %:    62.7818  MISS %:    37.2182   MPKI: 26.4508
L2C LOAD      ACCESS:     800995  HIT:     521493  MISS:     279502  HIT %:    65.1056  MISS %:    34.8944   MPKI: 5.59004
L2C DATA LOAD MPKI: 3.48968
L2C INSTRUCTION LOAD MPKI: 2.10036
L2C RFO       ACCESS:      88737  HIT:      43017  MISS:      45720  HIT %:     48.477  MISS %:     51.523   MPKI: 0.9144
L2C PREFETCH  ACCESS:    2236130  HIT:    1325523  MISS:     910607  HIT %:    59.2775  MISS %:    40.7225   MPKI: 18.2121
L2C DATA PREFETCH MPKI: 3.74694
L2C INSTRUCTION PREFETCH MPKI: 14.4652
L2C WRITEBACK ACCESS:     256071  HIT:     239856  MISS:      16215  HIT %:    93.6678  MISS %:    6.33223   MPKI: 0.3243
L2C LOAD TRANSLATION ACCESS:     127200  HIT:      69789  MISS:      57411  HIT %:    54.8656  MISS %:    45.1344   MPKI: 1.14822
L2C TRANSLATION FROM L1D PREFETCHER ACCESS:      44352  HIT:      31265  MISS:      13087  HIT %:    70.4929  MISS %:    29.5071   MPKI: 0.26174
L2C PREFETCH  REQUESTED:     373497  ISSUED:     373497  USEFUL:     160596  USELESS:     763717
L2C USEFUL LOAD PREFETCHES:     160596 PREFETCH ISSUED TO LOWER LEVEL:     914644  ACCURACY: 17.5583
L2C TIMELY PREFETCHES:     160596 LATE PREFETCHES: 4036 DROPPED PREFETCHES: 0
L2C PREFETCHES SAME FILL-ORIGIN LEVEL: 191384 DIFFERENT FILL-ORIGIN LEVEL: 0
L2C AVERAGE MISS LATENCY: 40.5753 cycles
L2C RQ	ACCESS:    1061317	FORWARD:          0	MERGED:          0	TO_CACHE:    1061284
L2C WQ	ACCESS:     256071	FORWARD:         34	MERGED:          0	TO_CACHE:     256071
L2C PQ	ACCESS:    2255048	FORWARD:          0	MERGED:          0	TO_CACHE:    2255047

L2C Instructions Evicting Data 263898
L2C Translations Evicting Data 22793
L2C Data Evicting Data 130952
L2C Instructions Evicting Instructions 519657
L2C Translations Evicting Instructions 44574
L2C Data Evicting Instructions 254842
L2C Instructions Evicting Translations 44723
L2C Translations Evicting Translations 3131
L2C Data Evicting Translations 21757
L2C Dense regions hint from L2: 0
PSCL5 TOTAL     ACCESS:     132660  HIT:     132660  MISS:          0  HIT %:        100  MISS %:          0   MPKI: 0
PSCL5 LOAD TRANSLATION ACCESS:      96769  HIT:      96769  MISS:          0  HIT %:        100  MISS %:          0   MPKI: 0
PSCL5 TRANSLATION FROM L1D PREFETCHER ACCESS:      35891  HIT:      35891  MISS:          0  HIT %:        100  MISS %:          0   MPKI: 0
PSCL5 PREFETCH  REQUESTED:          0  ISSUED:          0  USEFUL:          0  USELESS:          0
PSCL5 USEFUL LOAD PREFETCHES:          0 PREFETCH ISSUED TO LOWER LEVEL:          0  ACCURACY: -nan
PSCL5 TIMELY PREFETCHES:          0 LATE PREFETCHES: 0 DROPPED PREFETCHES: 0
PSCL5 PREFETCHES SAME FILL-ORIGIN LEVEL: 0 DIFFERENT FILL-ORIGIN LEVEL: 0

PSCL4 TOTAL     ACCESS:     123722  HIT:     123403  MISS:        319  HIT %:    99.7422  MISS %:   0.257836   MPKI: 0.00638
PSCL4 LOAD TRANSLATION ACCESS:      89520  HIT:      89201  MISS:        319  HIT %:    99.6437  MISS %:   0.356345   MPKI: 0.00638
PSCL4 TRANSLATION FROM L1D PREFETCHER ACCESS:      34202  HIT:      34202  MISS:          0  HIT %:        100  MISS %:          0   MPKI: 0
PSCL4 PREFETCH  REQUESTED:          0  ISSUED:          0  USEFUL:          0  USELESS:          0
PSCL4 USEFUL LOAD PREFETCHES:          0 PREFETCH ISSUED TO LOWER LEVEL:          0  ACCURACY: -nan
PSCL4 TIMELY PREFETCHES:          0 LATE PREFETCHES: 0 DROPPED PREFETCHES: 0
PSCL4 PREFETCHES SAME FILL-ORIGIN LEVEL: 0 DIFFERENT FILL-ORIGIN LEVEL: 0

PSCL3 TOTAL     ACCESS:     131103  HIT:     130091  MISS:       1012  HIT %:    99.2281  MISS %:   0.771912   MPKI: 0.02024
PSCL3 LOAD TRANSLATION ACCESS:      96320  HIT:      95308  MISS:       1012  HIT %:    98.9493  MISS %:    1.05066   MPKI: 0.02024
PSCL3 TRANSLATION FROM L1D PREFETCHER ACCESS:      34783  HIT:      34783  MISS:          0  HIT %:        100  MISS %:          0   MPKI: 0
PSCL3 PREFETCH  REQUESTED:          0  ISSUED:          0  USEFUL:          0  USELESS:          0
PSCL3 USEFUL LOAD PREFETCHES:          0 PREFETCH ISSUED TO LOWER LEVEL:          0  ACCURACY: -nan
PSCL3 TIMELY PREFETCHES:          0 LATE PREFETCHES: 0 DROPPED PREFETCHES: 0
PSCL3 PREFETCHES SAME FILL-ORIGIN LEVEL: 0 DIFFERENT FILL-ORIGIN LEVEL: 0

PSCL2 TOTAL     ACCESS:     128961  HIT:      95684  MISS:      33277  HIT %:    74.1961  MISS %:    25.8039   MPKI: 0.66554
PSCL2 LOAD TRANSLATION ACCESS:     100635  HIT:      67358  MISS:      33277  HIT %:     66.933  MISS %:     33.067   MPKI: 0.66554
PSCL2 TRANSLATION FROM L1D PREFETCHER ACCESS:      28326  HIT:      28326  MISS:          0  HIT %:        100  MISS %:          0   MPKI: 0
PSCL2 PREFETCH  REQUESTED:          0  ISSUED:          0  USEFUL:          0  USELESS:          0
PSCL2 USEFUL LOAD PREFETCHES:          0 PREFETCH ISSUED TO LOWER LEVEL:          0  ACCURACY: -nan
PSCL2 TIMELY PREFETCHES:          0 LATE PREFETCHES: 0 DROPPED PREFETCHES: 0
PSCL2 PREFETCHES SAME FILL-ORIGIN LEVEL: 0 DIFFERENT FILL-ORIGIN LEVEL: 0

LLC TOTAL     ACCESS:    1442150  HIT:    1356970  MISS:      85180  HIT %:    94.0935  MISS %:    5.90646   MPKI: 1.7036
LLC LOAD      ACCESS:     275478  HIT:     254384  MISS:      21094  HIT %:    92.3428  MISS %:    7.65724   MPKI: 0.42188
LLC RFO       ACCESS:      45708  HIT:      34604  MISS:      11104  HIT %:    75.7067  MISS %:    24.2933   MPKI: 0.22208
LLC PREFETCH  ACCESS:     914639  HIT:     864065  MISS:      50574  HIT %:    94.4706  MISS %:    5.52939   MPKI: 1.01148
LLC WRITEBACK ACCESS:     135827  HIT:     135084  MISS:        743  HIT %:     99.453  MISS %:   0.547019   MPKI: 0.01486
LLC LOAD TRANSLATION ACCESS:      57411  HIT:      55805  MISS:       1606  HIT %:    97.2026  MISS %:    2.79737   MPKI: 0.03212
LLC TRANSLATION FROM L1D PREFETCHER ACCESS:      13087  HIT:      13028  MISS:         59  HIT %:    99.5492  MISS %:   0.450829   MPKI: 0.00118
LLC PREFETCH  REQUESTED:          0  ISSUED:          0  USEFUL:       3476  USELESS:      45449
LLC USEFUL LOAD PREFETCHES:       3476 PREFETCH ISSUED TO LOWER LEVEL:      50575  ACCURACY: 6.87296
LLC TIMELY PREFETCHES:       3476 LATE PREFETCHES: 0 DROPPED PREFETCHES: 0
LLC PREFETCHES SAME FILL-ORIGIN LEVEL: 0 DIFFERENT FILL-ORIGIN LEVEL: 0
LLC AVERAGE MISS LATENCY: 169.783 cycles
LLC RQ	ACCESS:     391684	FORWARD:          0	MERGED:          0	TO_CACHE:     391684
LLC WQ	ACCESS:     135827	FORWARD:          4	MERGED:          0	TO_CACHE:     135827
LLC PQ	ACCESS:     914644	FORWARD:          0	MERGED:          0	TO_CACHE:     914640

LLC Dense regions hint to LLC: 0

RAW hits: 965517
Loads Generated: 11458862
Loads sent to L1D: 10493345
Stores Generated: 5191012
Stores sent to L1D: 5191026
Major fault: 0 Minor fault: 6553
Allocated PAGES: 6553
I-Shadow cache 408 bytes
Touched + WorthPF tables 6144 bytes 
MMA filter 174 bytes 
FNL filter 272 bytes 
TOTAL PREFETCHER STORAGE SIZE: 25174 bytes
CPU 0 L1I next line prefetcher final stats
[Bingo] PHT Access: 219312
[Bingo] PHT Hit PC+Addr: 101119
[Bingo] PHT Hit PC+Offs: 14039
[Bingo] PHT Miss: 104154
[Bingo] Prefetch PC+Addr: 0
[Bingo] Prefetch PC+Offs: 0
[Bingo] Useful PC+Addr: 0
[Bingo] Useful PC+Offs: 0
[Bingo] Useless PC+Addr: 0
[Bingo] Useless PC+Offs: 0
[Bingo] L1 Prefetch per Region: 0
[Bingo] L2 Prefetch per Region: 4.29483
[Bingo] L3 Prefetch per Region: 0
[Bingo] No Prefetch per Region: 27.7052
[Bingo] Number of Voters Mean: 2.75169
[Bingo] Number of Voters SD: 4.7092
PHT read accesses: 1732030
PHT write accesses: 85777
AT read accesses: 369805
AT write accesses: 423114
FT read accesses: 268848
FT write accesses: 219312
PS read accesses: 236603
PS write accesses: 115158
PHT tag read accesses: 3620920
PHT tag write accesses: 186896
AT tag read accesses: 33962266
AT tag write accesses: 455587
FT tag read accesses: 33748986
FT tag write accesses: 400901
PS tag read accesses: 12958581
PS tag write accesses: 351200

DRAM Statistics
 CHANNEL 0
 RQ ROW_BUFFER_HIT:      26004  ROW_BUFFER_MISS:      58432
 DBUS_CONGESTED:         46
 WQ ROW_BUFFER_HIT:       7761  ROW_BUFFER_MISS:      51454  FULL:          0

 AVG_CONGESTED_CYCLE: 5
 All warmup complete: 2
Channel 0 Bank busy for read cycles: 0
Channel 0 Bank busy for write cycles: 0
Channel 0
Rank 0
0banks busy for read cycles: 61400402
0banks busy for write cycles: 13816
1banks busy for read cycles: 2901354
1banks busy for write cycles: 1634872
2banks busy for read cycles: 710929
2banks busy for write cycles: 573791
3banks busy for read cycles: 271941
3banks busy for write cycles: 296881
4banks busy for read cycles: 157164
4banks busy for write cycles: 207279
5banks busy for read cycles: 100511
5banks busy for write cycles: 170605
6banks busy for read cycles: 86930
6banks busy for write cycles: 161888
7banks busy for read cycles: 107064
7banks busy for write cycles: 183641
8banks busy for read cycles: 315605
8banks busy for write cycles: 301063

CPU 0 Branch Prediction Accuracy: 99.4114% MPKI: 1.0933 Average ROB Occupancy at Mispredict: 54.0839
Branch types
NOT_BRANCH: 40713171 81.4263%
BRANCH_DIRECT_JUMP: 463697 0.927394%
BRANCH_INDIRECT: 146542 0.293084%
BRANCH_CONDITIONAL: 6981941 13.9639%
BRANCH_DIRECT_CALL: 665004 1.33001%
BRANCH_INDIRECT_CALL: 165150 0.3303%
BRANCH_RETURN: 864310 1.72862%
BRANCH_OTHER: 0 0%

DRAM PAGES: 1048576
Allocated PAGES: 6553
