
*** ChampSim Multicore Out-of-Order Simulator ***

Warmup Instructions: 50000000
Simulation Instructions: 50000000
Number of CPUs: 1
LLC sets: 2048
LLC ways: 16
Off-chip DRAM Size: 4096 MB Channels: 1 Width: 64-bit Data Rate: 6400 MT/s
CPU 0 runs ../IPC-traces//server_004.champsimtrace.xz
.xz
BTB has LRU replacement policy
ITLB has LRU replacement policy
DTLB has LRU replacement policy
STLB has LRU replacement policy
CPU 0 L1I next line prefetcher
L1I has LRU replacement policy
L1D has LRU replacement policy
Bingo PHT WAYS: 16 and PHT_SIZE: 16384
Initialize SRRIP state for L2C
Initialize DRRIP state for LLC
Heartbeat CPU 0 instructions: 10000002 cycles: 2773281 heartbeat IPC: 3.60584 cumulative IPC: 3.60584 (Simulation time: 0 hr 3 min 30 sec) 
Heartbeat CPU 0 instructions: 20000002 cycles: 5586372 heartbeat IPC: 3.55481 cumulative IPC: 3.58014 (Simulation time: 0 hr 6 min 51 sec) 
Heartbeat CPU 0 instructions: 30000000 cycles: 9726790 heartbeat IPC: 2.41521 cumulative IPC: 3.08427 (Simulation time: 0 hr 10 min 45 sec) 
Heartbeat CPU 0 instructions: 40000003 cycles: 12866291 heartbeat IPC: 3.18522 cumulative IPC: 3.1089 (Simulation time: 0 hr 13 min 50 sec) 
Heartbeat CPU 0 instructions: 50000003 cycles: 15632297 heartbeat IPC: 3.61532 cumulative IPC: 3.19851 (Simulation time: 0 hr 16 min 24 sec) 

Warmup complete CPU 0 instructions: 50000003 cycles: 15632297 (Simulation time: 0 hr 16 min 24 sec) 

Heartbeat CPU 0 instructions: 60000002 cycles: 31279807 heartbeat IPC: 0.639079 cumulative IPC: 0.639079 (Simulation time: 0 hr 19 min 49 sec) 
Heartbeat CPU 0 instructions: 70000000 cycles: 46292328 heartbeat IPC: 0.666111 cumulative IPC: 0.652315 (Simulation time: 0 hr 23 min 10 sec) 
Heartbeat CPU 0 instructions: 80000001 cycles: 74209899 heartbeat IPC: 0.358197 cumulative IPC: 0.512141 (Simulation time: 0 hr 28 min 15 sec) 
Heartbeat CPU 0 instructions: 90000000 cycles: 97664092 heartbeat IPC: 0.426363 cumulative IPC: 0.487616 (Simulation time: 0 hr 32 min 10 sec) 
Heartbeat CPU 0 instructions: 100000002 cycles: 113439815 heartbeat IPC: 0.633886 cumulative IPC: 0.511208 (Simulation time: 0 hr 36 min 45 sec) 
Finished CPU 0 instructions: 50000000 cycles: 97807520 cumulative IPC: 0.511208 (Simulation time: 0 hr 36 min 45 sec) 

ChampSim completed all CPUs

Region of Interest Statistics

CPU 0 cumulative IPC: 0.511208 instructions: 50000000 cycles: 97807520

CPU 0 Average Load ROB stall cycles: 3.22883e+07
CPU 0 Fraction of times ROB stalled by Loads: 49.542
CPU 0 Percentage of Load stall cycles in Total stall cycles: 3.16581e+08
Issued all: 36020027
Issued LT all: 30660645
rob_not_full_when_issued_lt_all: 21615530
Issued LT one: 24480097
rob_not_full_when_issued_lt_one: 16258485
 Total stall cycles: 82733156
 Total load stall cycles: 261917797475858
Unique Load IPs: 67442
CPU 0 NUM of IPS identified critical: 46
CPU 0 Num of Load IPs stalling ROB: 0
Threshold modification factor: 0
Trouble in retire width: -nan
MaC = Marked as critical.
lt_50_percent_before_Mac: 12
gt_90_percent_before_Mac: 8
gt_75_percent_before_Mac: 11
gt_50_percent_before_Mac: 6
stall_proportion_bin_same_before_after: 0
stall_proportion_bin_lower_before_after: 0
stall_proportion_bin_upper_before_after: 0
average_stall_proportion_before: 0.0354543
average_stall_proportion_after: 0.0355944
Critical_IP_Detector_Accuracy_70: 0
Critical_IP_Detector_Accuracy_80: 0
Critical_IP_Detector_Accuracy_90: 0
Critical_IP_Detector_Coverage_70: 0
Critical_IP_Detector_Coverage_80: 0
Critical_IP_Detector_Coverage_90: 0
stat_90_percent_critical_ip_stalls_freq: 713966
stat_90_percent_non_critical_ip_stalls_freq: 18446744073708837650
AVERAGE_ROB_Occupancy_90_Percent_Critical_IP_Stalls: 258.543
AVERAGE_ROB_Occupancy_90_Percent_Non_Critical_IP_Stalls: 1.9114e-11
Critical_IP_ROB_Stalls_Bucket_0: 11011
Non-critical_IP_ROB_Stalls_Bucket_0: 1412046
Critical_IP_ROB_Stalls_Bucket_1: 3712
Non-critical_IP_ROB_Stalls_Bucket_1: 768167
Critical_IP_ROB_Stalls_Bucket_2: 1627
Non-critical_IP_ROB_Stalls_Bucket_2: 403664
Critical_IP_ROB_Stalls_Bucket_3: 1375
Non-critical_IP_ROB_Stalls_Bucket_3: 284672
Critical_IP_ROB_Stalls_Bucket_4: 1167
Non-critical_IP_ROB_Stalls_Bucket_4: 234517
Critical_IP_ROB_Stalls_Bucket_5: 1065
Non-critical_IP_ROB_Stalls_Bucket_5: 233458
Critical_IP_ROB_Stalls_Bucket_6: 3249
Non-critical_IP_ROB_Stalls_Bucket_6: 659034
0 => IPs accounting for >50 percent of stalls, 1 => 55, 2 => 60, 3 => 65 and so on till 90.
percent50: inf num IPs:  1
percent55: inf num IPs: 1
percent60: inf num IPs: 1
percent65: inf num IPs: 1
percent70: inf num IPs: 1
percent75: inf num IPs: 1
percent80: inf num IPs: 1
percent85: inf num IPs: 1
percent90: inf num IPs: 1
Critical_ROB_Stalls_Percent_0_Bucket_0: 72
Non-critical_ROB_Stalls_Percent_0_Bucket_0: 1422985
Critical_ROB_Stalls_Percent_0_Bucket_1: 14743
Non-critical_ROB_Stalls_Percent_0_Bucket_1: 757136
Critical_ROB_Stalls_Percent_0_Bucket_2: 89193
Non-critical_ROB_Stalls_Percent_0_Bucket_2: 316098
Critical_ROB_Stalls_Percent_0_Bucket_3: 105131
Non-critical_ROB_Stalls_Percent_0_Bucket_3: 180916
Critical_ROB_Stalls_Percent_0_Bucket_4: 104533
Non-critical_ROB_Stalls_Percent_0_Bucket_4: 131151
Critical_ROB_Stalls_Percent_0_Bucket_5: 108121
Non-critical_ROB_Stalls_Percent_0_Bucket_5: 126402
Critical_ROB_Stalls_Percent_0_Bucket_6: 292173
Non-critical_ROB_Stalls_Percent_0_Bucket_6: 370110
Critical_ROB_Stalls_Percent_1_Bucket_0: 72
Non-critical_ROB_Stalls_Percent_1_Bucket_0: 1422985
Critical_ROB_Stalls_Percent_1_Bucket_1: 14743
Non-critical_ROB_Stalls_Percent_1_Bucket_1: 757136
Critical_ROB_Stalls_Percent_1_Bucket_2: 89193
Non-critical_ROB_Stalls_Percent_1_Bucket_2: 316098
Critical_ROB_Stalls_Percent_1_Bucket_3: 105131
Non-critical_ROB_Stalls_Percent_1_Bucket_3: 180916
Critical_ROB_Stalls_Percent_1_Bucket_4: 104533
Non-critical_ROB_Stalls_Percent_1_Bucket_4: 131151
Critical_ROB_Stalls_Percent_1_Bucket_5: 108121
Non-critical_ROB_Stalls_Percent_1_Bucket_5: 126402
Critical_ROB_Stalls_Percent_1_Bucket_6: 292173
Non-critical_ROB_Stalls_Percent_1_Bucket_6: 370110
Critical_ROB_Stalls_Percent_2_Bucket_0: 72
Non-critical_ROB_Stalls_Percent_2_Bucket_0: 1422985
Critical_ROB_Stalls_Percent_2_Bucket_1: 14743
Non-critical_ROB_Stalls_Percent_2_Bucket_1: 757136
Critical_ROB_Stalls_Percent_2_Bucket_2: 89193
Non-critical_ROB_Stalls_Percent_2_Bucket_2: 316098
Critical_ROB_Stalls_Percent_2_Bucket_3: 105131
Non-critical_ROB_Stalls_Percent_2_Bucket_3: 180916
Critical_ROB_Stalls_Percent_2_Bucket_4: 104533
Non-critical_ROB_Stalls_Percent_2_Bucket_4: 131151
Critical_ROB_Stalls_Percent_2_Bucket_5: 108121
Non-critical_ROB_Stalls_Percent_2_Bucket_5: 126402
Critical_ROB_Stalls_Percent_2_Bucket_6: 292173
Non-critical_ROB_Stalls_Percent_2_Bucket_6: 370110
Critical_ROB_Stalls_Percent_3_Bucket_0: 72
Non-critical_ROB_Stalls_Percent_3_Bucket_0: 1422985
Critical_ROB_Stalls_Percent_3_Bucket_1: 14743
Non-critical_ROB_Stalls_Percent_3_Bucket_1: 757136
Critical_ROB_Stalls_Percent_3_Bucket_2: 89193
Non-critical_ROB_Stalls_Percent_3_Bucket_2: 316098
Critical_ROB_Stalls_Percent_3_Bucket_3: 105131
Non-critical_ROB_Stalls_Percent_3_Bucket_3: 180916
Critical_ROB_Stalls_Percent_3_Bucket_4: 104533
Non-critical_ROB_Stalls_Percent_3_Bucket_4: 131151
Critical_ROB_Stalls_Percent_3_Bucket_5: 108121
Non-critical_ROB_Stalls_Percent_3_Bucket_5: 126402
Critical_ROB_Stalls_Percent_3_Bucket_6: 292173
Non-critical_ROB_Stalls_Percent_3_Bucket_6: 370110
Critical_ROB_Stalls_Percent_4_Bucket_0: 72
Non-critical_ROB_Stalls_Percent_4_Bucket_0: 1422985
Critical_ROB_Stalls_Percent_4_Bucket_1: 14743
Non-critical_ROB_Stalls_Percent_4_Bucket_1: 757136
Critical_ROB_Stalls_Percent_4_Bucket_2: 89193
Non-critical_ROB_Stalls_Percent_4_Bucket_2: 316098
Critical_ROB_Stalls_Percent_4_Bucket_3: 105131
Non-critical_ROB_Stalls_Percent_4_Bucket_3: 180916
Critical_ROB_Stalls_Percent_4_Bucket_4: 104533
Non-critical_ROB_Stalls_Percent_4_Bucket_4: 131151
Critical_ROB_Stalls_Percent_4_Bucket_5: 108121
Non-critical_ROB_Stalls_Percent_4_Bucket_5: 126402
Critical_ROB_Stalls_Percent_4_Bucket_6: 292173
Non-critical_ROB_Stalls_Percent_4_Bucket_6: 370110
Critical_ROB_Stalls_Percent_5_Bucket_0: 72
Non-critical_ROB_Stalls_Percent_5_Bucket_0: 1422985
Critical_ROB_Stalls_Percent_5_Bucket_1: 14743
Non-critical_ROB_Stalls_Percent_5_Bucket_1: 757136
Critical_ROB_Stalls_Percent_5_Bucket_2: 89193
Non-critical_ROB_Stalls_Percent_5_Bucket_2: 316098
Critical_ROB_Stalls_Percent_5_Bucket_3: 105131
Non-critical_ROB_Stalls_Percent_5_Bucket_3: 180916
Critical_ROB_Stalls_Percent_5_Bucket_4: 104533
Non-critical_ROB_Stalls_Percent_5_Bucket_4: 131151
Critical_ROB_Stalls_Percent_5_Bucket_5: 108121
Non-critical_ROB_Stalls_Percent_5_Bucket_5: 126402
Critical_ROB_Stalls_Percent_5_Bucket_6: 292173
Non-critical_ROB_Stalls_Percent_5_Bucket_6: 370110
Critical_ROB_Stalls_Percent_6_Bucket_0: 72
Non-critical_ROB_Stalls_Percent_6_Bucket_0: 1422985
Critical_ROB_Stalls_Percent_6_Bucket_1: 14743
Non-critical_ROB_Stalls_Percent_6_Bucket_1: 757136
Critical_ROB_Stalls_Percent_6_Bucket_2: 89193
Non-critical_ROB_Stalls_Percent_6_Bucket_2: 316098
Critical_ROB_Stalls_Percent_6_Bucket_3: 105131
Non-critical_ROB_Stalls_Percent_6_Bucket_3: 180916
Critical_ROB_Stalls_Percent_6_Bucket_4: 104533
Non-critical_ROB_Stalls_Percent_6_Bucket_4: 131151
Critical_ROB_Stalls_Percent_6_Bucket_5: 108121
Non-critical_ROB_Stalls_Percent_6_Bucket_5: 126402
Critical_ROB_Stalls_Percent_6_Bucket_6: 292173
Non-critical_ROB_Stalls_Percent_6_Bucket_6: 370110
Critical_ROB_Stalls_Percent_7_Bucket_0: 72
Non-critical_ROB_Stalls_Percent_7_Bucket_0: 1422985
Critical_ROB_Stalls_Percent_7_Bucket_1: 14743
Non-critical_ROB_Stalls_Percent_7_Bucket_1: 757136
Critical_ROB_Stalls_Percent_7_Bucket_2: 89193
Non-critical_ROB_Stalls_Percent_7_Bucket_2: 316098
Critical_ROB_Stalls_Percent_7_Bucket_3: 105131
Non-critical_ROB_Stalls_Percent_7_Bucket_3: 180916
Critical_ROB_Stalls_Percent_7_Bucket_4: 104533
Non-critical_ROB_Stalls_Percent_7_Bucket_4: 131151
Critical_ROB_Stalls_Percent_7_Bucket_5: 108121
Non-critical_ROB_Stalls_Percent_7_Bucket_5: 126402
Critical_ROB_Stalls_Percent_7_Bucket_6: 292173
Non-critical_ROB_Stalls_Percent_7_Bucket_6: 370110
Critical_ROB_Stalls_Percent_8_Bucket_0: 72
Non-critical_ROB_Stalls_Percent_8_Bucket_0: 1422985
Critical_ROB_Stalls_Percent_8_Bucket_1: 14743
Non-critical_ROB_Stalls_Percent_8_Bucket_1: 757136
Critical_ROB_Stalls_Percent_8_Bucket_2: 89193
Non-critical_ROB_Stalls_Percent_8_Bucket_2: 316098
Critical_ROB_Stalls_Percent_8_Bucket_3: 105131
Non-critical_ROB_Stalls_Percent_8_Bucket_3: 180916
Critical_ROB_Stalls_Percent_8_Bucket_4: 104533
Non-critical_ROB_Stalls_Percent_8_Bucket_4: 131151
Critical_ROB_Stalls_Percent_8_Bucket_5: 108121
Non-critical_ROB_Stalls_Percent_8_Bucket_5: 126402
Critical_ROB_Stalls_Percent_8_Bucket_6: 292173
Non-critical_ROB_Stalls_Percent_8_Bucket_6: 370110
Average ROB occupancy Load Stall Begin: 126.089
Average ROB occupancy Load Stall End: 133.669
Min ROB occupancy Load Stall Begin: 1
Max ROB occupancy Load Stall Begin: 352
Min ROB occupancy Load Stall End: 1
Max ROB occupancy Load Stall End: 352
Average ROB occupancy Critical Load Stall Begin: 177.139
Average ROB occupancy Critical Load Stall End: 182.376
Min ROB occupancy Critical Load Stall Begin: 2
Max ROB occupancy Critical Load Stall Begin: 352
Min ROB occupancy Critical Load Stall End: 3
Max ROB occupancy Critical Load Stall End: 352
 ROB Load Stall Begin Bucket Count 0: 1702771
 ROB Load Stall End Bucket Count 0: 1423057
 ROB Critical Load Stall Begin Bucket Count 0: 2947
 ROB Critical Load Stall End Bucket Count 0: 2674
 ROB Load Stall Begin Bucket Count 1: 598255
 ROB Load Stall End Bucket Count 1: 771879
 ROB Critical Load Stall Begin Bucket Count 1: 868
 ROB Critical Load Stall End Bucket Count 1: 985
 ROB Load Stall Begin Bucket Count 2: 351719
 ROB Load Stall End Bucket Count 2: 405291
 ROB Critical Load Stall Begin Bucket Count 2: 988
 ROB Critical Load Stall End Bucket Count 2: 1012
 ROB Load Stall Begin Bucket Count 3: 260018
 ROB Load Stall End Bucket Count 3: 286047
 ROB Critical Load Stall Begin Bucket Count 3: 943
 ROB Critical Load Stall End Bucket Count 3: 1014
 ROB Load Stall Begin Bucket Count 4: 231672
 ROB Load Stall End Bucket Count 4: 235684
 ROB Critical Load Stall Begin Bucket Count 4: 890
 ROB Critical Load Stall End Bucket Count 4: 908
 ROB Load Stall Begin Bucket Count 5: 226694
 ROB Load Stall End Bucket Count 5: 234523
 ROB Critical Load Stall Begin Bucket Count 5: 944
 ROB Critical Load Stall End Bucket Count 5: 937
 ROB Load Stall Begin Bucket Count 6: 647636
 ROB Load Stall End Bucket Count 6: 662283
 ROB Critical Load Stall Begin Bucket Count 6: 2841
 ROB Critical Load Stall End Bucket Count 6: 2893
PIST Tag Read Accesses: 0
PIST Read Accesses: 0
PIST Tag Write Accesses: 0
PIST Write Accesses: 0
Criticality detector called times: 0
Max global_stall_cycles_count: 0
Threshold Modified: 0 times, factor: 0
Sturdy critical IP cache stats: 
 Unused entries: 0
CIC Tag Read Accesses: 0
CIC Read Accesses: 0
CIC Tag Write Accesses: 0
CIC Write Accesses: 0
Wobbly critical IP cache stats: 
 Unused entries: 0
CIC Tag Read Accesses: 139957127
CIC Read Accesses: 0
CIC Tag Write Accesses: 46746
CIC Write Accesses: 0
ITLB TOTAL     ACCESS:    9913672  HIT:    9719487  MISS:     194185  HIT %:    98.0412  MISS %:    1.95876   MPKI: 3.8837
ITLB LOAD TRANSLATION ACCESS:    8939597  HIT:    8869973  MISS:      69624  HIT %:    99.2212  MISS %:   0.778827   MPKI: 1.39248
ITLB TRANSLATION FROM L1D PREFETCHER ACCESS:     974075  HIT:     849514  MISS:     124561  HIT %:    87.2124  MISS %:    12.7876   MPKI: 2.49122
ITLB PREFETCH  REQUESTED:          0  ISSUED:          0  USEFUL:     102847  USELESS:      21721
ITLB USEFUL LOAD PREFETCHES:     102847 PREFETCH ISSUED TO LOWER LEVEL:          0  ACCURACY: inf
ITLB TIMELY PREFETCHES:     102847 LATE PREFETCHES: 539 DROPPED PREFETCHES: 8759
ITLB PREFETCHES SAME FILL-ORIGIN LEVEL: 0 DIFFERENT FILL-ORIGIN LEVEL: 0
ITLB AVERAGE MISS LATENCY: 185128 cycles
ITLB RQ	ACCESS:   13007983	FORWARD:          0	MERGED:    3056965	TO_CACHE:    9951018

DTLB TOTAL     ACCESS:   10666061  HIT:    9156943  MISS:    1509118  HIT %:    85.8512  MISS %:    14.1488   MPKI: 30.1824
DTLB LOAD TRANSLATION ACCESS:   10666061  HIT:    9156943  MISS:    1509118  HIT %:    85.8512  MISS %:    14.1488   MPKI: 30.1824
DTLB PREFETCH  REQUESTED:          0  ISSUED:          0  USEFUL:          0  USELESS:          0
DTLB USEFUL LOAD PREFETCHES:          0 PREFETCH ISSUED TO LOWER LEVEL:          0  ACCURACY: -nan
DTLB TIMELY PREFETCHES:          0 LATE PREFETCHES: 0 DROPPED PREFETCHES: 0
DTLB PREFETCHES SAME FILL-ORIGIN LEVEL: 0 DIFFERENT FILL-ORIGIN LEVEL: 0
DTLB AVERAGE MISS LATENCY: 11.4856 cycles
DTLB RQ	ACCESS:   13824745	FORWARD:          0	MERGED:    3126507	TO_CACHE:   10698238

STLB TOTAL     ACCESS:    1703303  HIT:    1595391  MISS:     107912  HIT %:    93.6645  MISS %:    6.33546   MPKI: 2.15824
STLB LOAD TRANSLATION ACCESS:    1578204  HIT:    1490626  MISS:      87578  HIT %:    94.4508  MISS %:    5.54922   MPKI: 1.75156
STLB TRANSLATION FROM L1D PREFETCHER ACCESS:     125099  HIT:     104765  MISS:      20334  HIT %:    83.7457  MISS %:    16.2543   MPKI: 0.40668
STLB PREFETCH  REQUESTED:          0  ISSUED:          0  USEFUL:      11583  USELESS:       8802
STLB USEFUL LOAD PREFETCHES:      11583 PREFETCH ISSUED TO LOWER LEVEL:          0  ACCURACY: inf
STLB TIMELY PREFETCHES:      11583 LATE PREFETCHES: 0 DROPPED PREFETCHES: 8760
STLB PREFETCHES SAME FILL-ORIGIN LEVEL: 0 DIFFERENT FILL-ORIGIN LEVEL: 0
STLB AVERAGE MISS LATENCY: 48.6289 cycles
STLB RQ	ACCESS:    1712063	FORWARD:          0	MERGED:          0	TO_CACHE:    1712063

STLB Hit, L1D data hit: 0
STLB Hit, L2C data hit: 0
STLB Hit, LLC data hit: 0
STLB Hit, LLC data miss: 0
STLB STLB hints to L2: 0
L1D TOTAL     ACCESS:   13674882  HIT:   11628321  MISS:    2046561  HIT %:    85.0342  MISS %:    14.9658   MPKI: 40.9312
L1D LOAD      ACCESS:    8979157  HIT:    7030821  MISS:    1948336  HIT %:    78.3016  MISS %:    21.6984   MPKI: 38.9667
L1D RFO       ACCESS:    4695725  HIT:    4597500  MISS:      98225  HIT %:    97.9082  MISS %:     2.0918   MPKI: 1.9645
L1D PREFETCH  REQUESTED:          0  ISSUED:          0  USEFUL:          0  USELESS:          0
L1D USEFUL LOAD PREFETCHES:          0 PREFETCH ISSUED TO LOWER LEVEL:          0  ACCURACY: -nan
L1D TIMELY PREFETCHES:          0 LATE PREFETCHES: 0 DROPPED PREFETCHES: 0
L1D PREFETCHES SAME FILL-ORIGIN LEVEL: 0 DIFFERENT FILL-ORIGIN LEVEL: 0
L1D AVERAGE MISS LATENCY: 25.8077 cycles
L1D RQ	ACCESS:   12433413	FORWARD:          0	MERGED:    3333419	TO_CACHE:    9015630
L1D WQ	ACCESS:    4946118	FORWARD:      84364	MERGED:     137003	TO_CACHE:    4809115

L1D UNIQUE REGIONS ACCESSED: 0
L1D REGIONS CONFLICTS: 0
L1D Cross Page Prefetch Requests: 0
L1D Same Page Prefetch Requests: 0
L1D ROI Sum of L1D PQ occupancy: 0
L1D PREFETCHES PUSHED FROM L2C: 0
L1I TOTAL     ACCESS:   12863755  HIT:   11204576  MISS:    1659179  HIT %:    87.1019  MISS %:    12.8981   MPKI: 33.1836
L1I LOAD      ACCESS:   10546117  HIT:   10295404  MISS:     250713  HIT %:    97.6227  MISS %:     2.3773   MPKI: 5.01426
L1I PREFETCH  ACCESS:    2317638  HIT:     909172  MISS:    1408466  HIT %:    39.2284  MISS %:    60.7716   MPKI: 28.1693
L1I PREFETCH  REQUESTED:    2535373  ISSUED:    2528244  USEFUL:     897261  USELESS:     511137
L1I USEFUL LOAD PREFETCHES:     897261 PREFETCH ISSUED TO LOWER LEVEL:    1438974  ACCURACY: 62.3542
L1I TIMELY PREFETCHES:     897261 LATE PREFETCHES: 30508 DROPPED PREFETCHES: 20942
L1I PREFETCHES SAME FILL-ORIGIN LEVEL: 1438974 DIFFERENT FILL-ORIGIN LEVEL: 0
L1I AVERAGE MISS LATENCY: 1.0781e+06 cycles
L1I RQ	ACCESS:   15274655	FORWARD:          0	MERGED:    4704851	TO_CACHE:   10569804
L1I PQ	ACCESS:    2528244	FORWARD:          0	MERGED:      90065	TO_CACHE:    2438179

BTB TOTAL     ACCESS:    6734668  HIT:    5946796  MISS:     787872  HIT %:    88.3012  MISS %:    11.6988   MPKI: 15.7574
BTB BRANCH_DIRECT_JUMP	ACCESS:     551642  HIT:     494500  MISS:      57142
BTB BRANCH_INDIRECT	ACCESS:     139368  HIT:     102277  MISS:      37091
BTB BRANCH_CONDITIONAL	ACCESS:    4079631  HIT:    3873987  MISS:     205644
BTB BRANCH_DIRECT_CALL	ACCESS:     776072  HIT:     672148  MISS:     103924
BTB BRANCH_INDIRECT_CALL	ACCESS:     194644  HIT:     163518  MISS:      31126
BTB BRANCH_RETURN	ACCESS:     993311  HIT:     640366  MISS:     352945
BTB BRANCH_OTHER ACCESS:          0  HIT:          0  MISS:          0

L2C TOTAL     ACCESS:    4073592  HIT:    3096752  MISS:     976840  HIT %:    76.0202  MISS %:    23.9798   MPKI: 19.5368
L2C LOAD      ACCESS:    2168531  HIT:    1803178  MISS:     365353  HIT %:    83.1521  MISS %:    16.8479   MPKI: 7.30706
L2C DATA LOAD MPKI: 5.4146
L2C INSTRUCTION LOAD MPKI: 1.89246
L2C RFO       ACCESS:      98222  HIT:      47933  MISS:      50289  HIT %:    48.8007  MISS %:    51.1993   MPKI: 1.00578
L2C PREFETCH  ACCESS:    1439823  HIT:     955116  MISS:     484707  HIT %:    66.3357  MISS %:    33.6643   MPKI: 9.69414
L2C DATA PREFETCH MPKI: 0.00858
L2C INSTRUCTION PREFETCH MPKI: 9.68556
L2C WRITEBACK ACCESS:     215016  HIT:     193895  MISS:      21121  HIT %:     90.177  MISS %:    9.82299   MPKI: 0.42242
L2C LOAD TRANSLATION ACCESS:     114018  HIT:      66635  MISS:      47383  HIT %:    58.4425  MISS %:    41.5575   MPKI: 0.94766
L2C TRANSLATION FROM L1D PREFETCHER ACCESS:      37982  HIT:      29995  MISS:       7987  HIT %:    78.9716  MISS %:    21.0284   MPKI: 0.15974
L2C PREFETCH  REQUESTED:       1006  ISSUED:       1006  USEFUL:      18543  USELESS:     474109
L2C USEFUL LOAD PREFETCHES:      18543 PREFETCH ISSUED TO LOWER LEVEL:     484724  ACCURACY: 3.82548
L2C TIMELY PREFETCHES:      18543 LATE PREFETCHES: 17 DROPPED PREFETCHES: 0
L2C PREFETCHES SAME FILL-ORIGIN LEVEL: 446 DIFFERENT FILL-ORIGIN LEVEL: 0
L2C AVERAGE MISS LATENCY: 47.4081 cycles
L2C RQ	ACCESS:    2418766	FORWARD:          0	MERGED:          0	TO_CACHE:    2418753
L2C WQ	ACCESS:     215016	FORWARD:         13	MERGED:          0	TO_CACHE:     215016
L2C PQ	ACCESS:    1439980	FORWARD:          0	MERGED:          0	TO_CACHE:    1439980

L2C Instructions Evicting Data 202169
L2C Translations Evicting Data 19309
L2C Data Evicting Data 114095
L2C Instructions Evicting Instructions 344338
L2C Translations Evicting Instructions 32825
L2C Data Evicting Instructions 188763
L2C Instructions Evicting Translations 32394
L2C Translations Evicting Translations 3236
L2C Data Evicting Translations 18590
L2C Dense regions hint from L2: 0
PSCL5 TOTAL     ACCESS:     116672  HIT:     116672  MISS:          0  HIT %:        100  MISS %:          0   MPKI: 0
PSCL5 LOAD TRANSLATION ACCESS:      87578  HIT:      87578  MISS:          0  HIT %:        100  MISS %:          0   MPKI: 0
PSCL5 TRANSLATION FROM L1D PREFETCHER ACCESS:      29094  HIT:      29094  MISS:          0  HIT %:        100  MISS %:          0   MPKI: 0
PSCL5 PREFETCH  REQUESTED:          0  ISSUED:          0  USEFUL:          0  USELESS:          0
PSCL5 USEFUL LOAD PREFETCHES:          0 PREFETCH ISSUED TO LOWER LEVEL:          0  ACCURACY: -nan
PSCL5 TIMELY PREFETCHES:          0 LATE PREFETCHES: 0 DROPPED PREFETCHES: 0
PSCL5 PREFETCHES SAME FILL-ORIGIN LEVEL: 0 DIFFERENT FILL-ORIGIN LEVEL: 0

PSCL4 TOTAL     ACCESS:     106371  HIT:     106131  MISS:        240  HIT %:    99.7744  MISS %:   0.225625   MPKI: 0.0048
PSCL4 LOAD TRANSLATION ACCESS:      80550  HIT:      80310  MISS:        240  HIT %:     99.702  MISS %:   0.297952   MPKI: 0.0048
PSCL4 TRANSLATION FROM L1D PREFETCHER ACCESS:      25821  HIT:      25821  MISS:          0  HIT %:        100  MISS %:          0   MPKI: 0
PSCL4 PREFETCH  REQUESTED:          0  ISSUED:          0  USEFUL:          0  USELESS:          0
PSCL4 USEFUL LOAD PREFETCHES:          0 PREFETCH ISSUED TO LOWER LEVEL:          0  ACCURACY: -nan
PSCL4 TIMELY PREFETCHES:          0 LATE PREFETCHES: 0 DROPPED PREFETCHES: 0
PSCL4 PREFETCHES SAME FILL-ORIGIN LEVEL: 0 DIFFERENT FILL-ORIGIN LEVEL: 0

PSCL3 TOTAL     ACCESS:     115398  HIT:     114770  MISS:        628  HIT %:    99.4558  MISS %:   0.544204   MPKI: 0.01256
PSCL3 LOAD TRANSLATION ACCESS:      87173  HIT:      86545  MISS:        628  HIT %:    99.2796  MISS %:   0.720407   MPKI: 0.01256
PSCL3 TRANSLATION FROM L1D PREFETCHER ACCESS:      28225  HIT:      28225  MISS:          0  HIT %:        100  MISS %:          0   MPKI: 0
PSCL3 PREFETCH  REQUESTED:          0  ISSUED:          0  USEFUL:          0  USELESS:          0
PSCL3 USEFUL LOAD PREFETCHES:          0 PREFETCH ISSUED TO LOWER LEVEL:          0  ACCURACY: -nan
PSCL3 TIMELY PREFETCHES:          0 LATE PREFETCHES: 0 DROPPED PREFETCHES: 0
PSCL3 PREFETCHES SAME FILL-ORIGIN LEVEL: 0 DIFFERENT FILL-ORIGIN LEVEL: 0

PSCL2 TOTAL     ACCESS:     111701  HIT:      82987  MISS:      28714  HIT %:    74.2939  MISS %:    25.7061   MPKI: 0.57428
PSCL2 LOAD TRANSLATION ACCESS:      90548  HIT:      61834  MISS:      28714  HIT %:    68.2886  MISS %:    31.7114   MPKI: 0.57428
PSCL2 TRANSLATION FROM L1D PREFETCHER ACCESS:      21153  HIT:      21153  MISS:          0  HIT %:        100  MISS %:          0   MPKI: 0
PSCL2 PREFETCH  REQUESTED:          0  ISSUED:          0  USEFUL:          0  USELESS:          0
PSCL2 USEFUL LOAD PREFETCHES:          0 PREFETCH ISSUED TO LOWER LEVEL:          0  ACCURACY: -nan
PSCL2 TIMELY PREFETCHES:          0 LATE PREFETCHES: 0 DROPPED PREFETCHES: 0
PSCL2 PREFETCHES SAME FILL-ORIGIN LEVEL: 0 DIFFERENT FILL-ORIGIN LEVEL: 0

LLC TOTAL     ACCESS:    1069248  HIT:     957937  MISS:     111311  HIT %:    89.5898  MISS %:    10.4102   MPKI: 2.22622
LLC LOAD      ACCESS:     365336  HIT:     300345  MISS:      64991  HIT %:    82.2106  MISS %:    17.7894   MPKI: 1.29982
LLC RFO       ACCESS:      50288  HIT:      33104  MISS:      17184  HIT %:    65.8288  MISS %:    34.1712   MPKI: 0.34368
LLC PREFETCH  ACCESS:     484724  HIT:     460768  MISS:      23956  HIT %:    95.0578  MISS %:    4.94219   MPKI: 0.47912
LLC WRITEBACK ACCESS:     113530  HIT:     110911  MISS:       2619  HIT %:    97.6931  MISS %:    2.30688   MPKI: 0.05238
LLC LOAD TRANSLATION ACCESS:      47383  HIT:      44926  MISS:       2457  HIT %:    94.8146  MISS %:     5.1854   MPKI: 0.04914
LLC TRANSLATION FROM L1D PREFETCHER ACCESS:       7987  HIT:       7883  MISS:        104  HIT %:    98.6979  MISS %:    1.30212   MPKI: 0.00208
LLC PREFETCH  REQUESTED:          0  ISSUED:          0  USEFUL:       1623  USELESS:      23579
LLC USEFUL LOAD PREFETCHES:       1623 PREFETCH ISSUED TO LOWER LEVEL:      23956  ACCURACY: 6.77492
LLC TIMELY PREFETCHES:       1623 LATE PREFETCHES: 0 DROPPED PREFETCHES: 0
LLC PREFETCHES SAME FILL-ORIGIN LEVEL: 0 DIFFERENT FILL-ORIGIN LEVEL: 0
LLC AVERAGE MISS LATENCY: 157.954 cycles
LLC RQ	ACCESS:     470995	FORWARD:          0	MERGED:          0	TO_CACHE:     470994
LLC WQ	ACCESS:     113530	FORWARD:          1	MERGED:          0	TO_CACHE:     113530
LLC PQ	ACCESS:     484724	FORWARD:          0	MERGED:          0	TO_CACHE:     484724

LLC Dense regions hint to LLC: 0

RAW hits: 1029647
Loads Generated: 13463062
Loads sent to L1D: 12433413
Stores Generated: 4946117
Stores sent to L1D: 4946118
Major fault: 0 Minor fault: 7942
Allocated PAGES: 7942
I-Shadow cache 408 bytes
Touched + WorthPF tables 6144 bytes 
MMA filter 174 bytes 
FNL filter 272 bytes 
TOTAL PREFETCHER STORAGE SIZE: 25174 bytes
CPU 0 L1I next line prefetcher final stats
[Bingo] PHT Access: 635
[Bingo] PHT Hit PC+Addr: 299
[Bingo] PHT Hit PC+Offs: 188
[Bingo] PHT Miss: 148
[Bingo] Prefetch PC+Addr: 0
[Bingo] Prefetch PC+Offs: 0
[Bingo] Useful PC+Addr: 0
[Bingo] Useful PC+Offs: 0
[Bingo] Useless PC+Addr: 0
[Bingo] Useless PC+Offs: 0
[Bingo] L1 Prefetch per Region: 0
[Bingo] L2 Prefetch per Region: 3.08008
[Bingo] L3 Prefetch per Region: 0
[Bingo] No Prefetch per Region: 28.9199
[Bingo] Number of Voters Mean: 2.71809
[Bingo] Number of Voters SD: 16.4472
PHT read accesses: 5880
PHT write accesses: 216
AT read accesses: 136301
AT write accesses: 136188
FT read accesses: 1123679
FT write accesses: 635
PS read accesses: 1027
PS write accesses: 487
PHT tag read accesses: 10844
PHT tag write accesses: 515
AT tag read accesses: 26802622
AT tag write accesses: 136404
FT tag read accesses: 24637107
FT tag write accesses: 562819
PS tag read accesses: 11186612
PS tag write accesses: 1511

DRAM Statistics
 CHANNEL 0
 RQ ROW_BUFFER_HIT:      22085  ROW_BUFFER_MISS:      86606
 DBUS_CONGESTED:         81
 WQ ROW_BUFFER_HIT:      10209  ROW_BUFFER_MISS:      38273  FULL:          0

 AVG_CONGESTED_CYCLE: 4
 All warmup complete: 2
Channel 0 Bank busy for read cycles: 0
Channel 0 Bank busy for write cycles: 0
Channel 0
Rank 0
0banks busy for read cycles: 83662314
0banks busy for write cycles: 20909
1banks busy for read cycles: 6665722
1banks busy for write cycles: 2972283
2banks busy for read cycles: 1536517
2banks busy for write cycles: 847057
3banks busy for read cycles: 442908
3banks busy for write cycles: 328276
4banks busy for read cycles: 210466
4banks busy for write cycles: 192120
5banks busy for read cycles: 131998
5banks busy for write cycles: 137603
6banks busy for read cycles: 127585
6banks busy for write cycles: 103975
7banks busy for read cycles: 59402
7banks busy for write cycles: 97418
8banks busy for read cycles: 44896
8banks busy for write cycles: 226072

CPU 0 Branch Prediction Accuracy: 98.1603% MPKI: 3.89124 Average ROB Occupancy at Mispredict: 40.6975
Branch types
NOT_BRANCH: 39423760 78.8475%
BRANCH_DIRECT_JUMP: 551642 1.10328%
BRANCH_INDIRECT: 139368 0.278736%
BRANCH_CONDITIONAL: 7920859 15.8417%
BRANCH_DIRECT_CALL: 776072 1.55214%
BRANCH_INDIRECT_CALL: 194644 0.389288%
BRANCH_RETURN: 993311 1.98662%
BRANCH_OTHER: 0 0%

DRAM PAGES: 1048576
Allocated PAGES: 7942
