
*** ChampSim Multicore Out-of-Order Simulator ***

Warmup Instructions: 50000000
Simulation Instructions: 50000000
Number of CPUs: 1
LLC sets: 2048
LLC ways: 16
Off-chip DRAM Size: 4096 MB Channels: 1 Width: 64-bit Data Rate: 6400 MT/s
CPU 0 runs ../IPC-traces//server_030.champsimtrace.xz
.xz
NUM_OF_IPS_IN_CRITICAL_IP_TRAINING: 64
NUM_OF_CRITICAL_IP_TRAINING_TABLE_WAYS: 2
NUM_OF_CRITICAL_IP_TRAINING_TABLE_SETS: 32
WOBBLY_CRITICAL_IP_CACHE_SETS: 32
WOBBLY_CRITICAL_IP_CACHE_WAYS: 4
BTB has LRU replacement policy
ITLB has LRU replacement policy
DTLB has LRU replacement policy
STLB has LRU replacement policy
CPU 0 L1I next line prefetcher
L1I has LRU replacement policy
IP Table Entries: 64
L1D has LRU replacement policy
Initialize SRRIP state for L2C
Initialize DRRIP state for LLC
Heartbeat CPU 0 instructions: 10000003 cycles: 2885777 heartbeat IPC: 3.46527 cumulative IPC: 3.46527 (Simulation time: 0 hr 4 min 52 sec) 
Heartbeat CPU 0 instructions: 20000003 cycles: 5767795 heartbeat IPC: 3.46979 cumulative IPC: 3.46753 (Simulation time: 0 hr 9 min 26 sec) 
Heartbeat CPU 0 instructions: 30000001 cycles: 8650909 heartbeat IPC: 3.46847 cumulative IPC: 3.46784 (Simulation time: 0 hr 13 min 28 sec) 
Heartbeat CPU 0 instructions: 40000001 cycles: 11534558 heartbeat IPC: 3.46783 cumulative IPC: 3.46784 (Simulation time: 0 hr 17 min 27 sec) 
Heartbeat CPU 0 instructions: 50000002 cycles: 14418888 heartbeat IPC: 3.46701 cumulative IPC: 3.46767 (Simulation time: 0 hr 21 min 24 sec) 

Warmup complete CPU 0 instructions: 50000002 cycles: 14418888 (Simulation time: 0 hr 21 min 24 sec) 

% increase in all ip prefetch 415.216
% increase in all ip prefetch -0.976213
Heartbeat CPU 0 instructions: 60000000 cycles: 30496708 heartbeat IPC: 0.621975 cumulative IPC: 0.621975 (Simulation time: 0 hr 24 min 55 sec) 
Heartbeat CPU 0 instructions: 70000002 cycles: 46649967 heartbeat IPC: 0.61907 cumulative IPC: 0.620519 (Simulation time: 0 hr 28 min 29 sec) 
Heartbeat CPU 0 instructions: 80000001 cycles: 62666071 heartbeat IPC: 0.624372 cumulative IPC: 0.621798 (Simulation time: 0 hr 32 min 16 sec) 
*** Reached end of trace for Core: 0 Repeating trace: ../IPC-traces//server_030.champsimtrace.xz
Heartbeat CPU 0 instructions: 90000002 cycles: 78766414 heartbeat IPC: 0.621105 cumulative IPC: 0.621625 (Simulation time: 0 hr 35 min 42 sec) 
Heartbeat CPU 0 instructions: 100000000 cycles: 94708242 heartbeat IPC: 0.627281 cumulative IPC: 0.622748 (Simulation time: 0 hr 41 min 9 sec) 
Finished CPU 0 instructions: 50000002 cycles: 80289355 cumulative IPC: 0.622748 (Simulation time: 0 hr 41 min 9 sec) 

ChampSim completed all CPUs

Region of Interest Statistics

CPU 0 cumulative IPC: 0.622748 instructions: 50000002 cycles: 80289355

CPU 0 Average Load ROB stall cycles: 1.94797e+07
CPU 0 Fraction of times ROB stalled by Loads: 35.6822
CPU 0 Percentage of Load stall cycles in Total stall cycles: 2.76118e+08
Issued all: 28228656
Issued LT all: 22329180
rob_not_full_when_issued_lt_all: 22285444
Issued LT one: 17409277
rob_not_full_when_issued_lt_one: 17372125
 Total stall cycles: 67709457
 Total load stall cycles: 186957891584571
CPU 0 NUM of IPS identified critical: 0
CPU 0 Num of Load IPs stalling ROB: 10831
Threshold modification factor: -1
Max PIST entries: 64
Min PIST entries: 0
Avg PIST entries: 32
Trouble in retire width: 0.898383
MaC = Marked as critical.
lt_50_percent_before_Mac: 0
gt_90_percent_before_Mac: 0
gt_75_percent_before_Mac: 0
gt_50_percent_before_Mac: 0
stall_proportion_bin_same_before_after: 0
stall_proportion_bin_lower_before_after: 0
stall_proportion_bin_upper_before_after: 0
average_stall_proportion_before: -nan
average_stall_proportion_after: -nan
Critical IP stalls, total frequency: 0
Non-critical IP stalls, total frequency: 3424618
Total Freq all stalling IPs: 3424618
stat_90_percent_critical_ip_stalls_freq: 3082416
stat_90_percent_non_critical_ip_stalls_freq: 342202
Critical_IP_ROB_Stalls_Bucket_0: 0
Non-critical_IP_ROB_Stalls_Bucket_0: 2447069
Critical_IP_ROB_Stalls_Bucket_1: 0
Non-critical_IP_ROB_Stalls_Bucket_1: 701007
Critical_IP_ROB_Stalls_Bucket_2: 0
Non-critical_IP_ROB_Stalls_Bucket_2: 209423
Critical_IP_ROB_Stalls_Bucket_3: 0
Non-critical_IP_ROB_Stalls_Bucket_3: 44601
Critical_IP_ROB_Stalls_Bucket_4: 0
Non-critical_IP_ROB_Stalls_Bucket_4: 11592
Critical_IP_ROB_Stalls_Bucket_5: 0
Non-critical_IP_ROB_Stalls_Bucket_5: 5316
Critical_IP_ROB_Stalls_Bucket_6: 0
Non-critical_IP_ROB_Stalls_Bucket_6: 5610
0 => IPs accounting for >50 percent of stalls, 1 => 55, 2 => 60, 3 => 65 and so on till 90.
percent50: 50.0284 num IPs:  466
percent55: 55.0008 num IPs: 663
percent60: 60.0076 num IPs: 877
percent65: 65.0151 num IPs: 1092
percent70: 70.0177 num IPs: 1312
percent75: 75.0159 num IPs: 1539
percent80: 80.02 num IPs: 1769
percent85: 85.0154 num IPs: 2011
percent90: 90.0076 num IPs: 2299
Critical_ROB_Stalls_Percent_0_Bucket_0: 1070742
Non-critical_ROB_Stalls_Percent_0_Bucket_0: 1376327
Critical_ROB_Stalls_Percent_0_Bucket_1: 433336
Non-critical_ROB_Stalls_Percent_0_Bucket_1: 267671
Critical_ROB_Stalls_Percent_0_Bucket_2: 149559
Non-critical_ROB_Stalls_Percent_0_Bucket_2: 59864
Critical_ROB_Stalls_Percent_0_Bucket_3: 40316
Non-critical_ROB_Stalls_Percent_0_Bucket_3: 4285
Critical_ROB_Stalls_Percent_0_Bucket_4: 9654
Non-critical_ROB_Stalls_Percent_0_Bucket_4: 1938
Critical_ROB_Stalls_Percent_0_Bucket_5: 4625
Non-critical_ROB_Stalls_Percent_0_Bucket_5: 691
Critical_ROB_Stalls_Percent_0_Bucket_6: 5049
Non-critical_ROB_Stalls_Percent_0_Bucket_6: 561
Critical_ROB_Stalls_Percent_1_Bucket_0: 1202399
Non-critical_ROB_Stalls_Percent_1_Bucket_0: 1244670
Critical_ROB_Stalls_Percent_1_Bucket_1: 461965
Non-critical_ROB_Stalls_Percent_1_Bucket_1: 239042
Critical_ROB_Stalls_Percent_1_Bucket_2: 157956
Non-critical_ROB_Stalls_Percent_1_Bucket_2: 51467
Critical_ROB_Stalls_Percent_1_Bucket_3: 41060
Non-critical_ROB_Stalls_Percent_1_Bucket_3: 3541
Critical_ROB_Stalls_Percent_1_Bucket_4: 10470
Non-critical_ROB_Stalls_Percent_1_Bucket_4: 1122
Critical_ROB_Stalls_Percent_1_Bucket_5: 4654
Non-critical_ROB_Stalls_Percent_1_Bucket_5: 662
Critical_ROB_Stalls_Percent_1_Bucket_6: 5064
Non-critical_ROB_Stalls_Percent_1_Bucket_6: 546
Critical_ROB_Stalls_Percent_2_Bucket_0: 1333011
Non-critical_ROB_Stalls_Percent_2_Bucket_0: 1114058
Critical_ROB_Stalls_Percent_2_Bucket_1: 495614
Non-critical_ROB_Stalls_Percent_2_Bucket_1: 205393
Critical_ROB_Stalls_Percent_2_Bucket_2: 165074
Non-critical_ROB_Stalls_Percent_2_Bucket_2: 44349
Critical_ROB_Stalls_Percent_2_Bucket_3: 41143
Non-critical_ROB_Stalls_Percent_2_Bucket_3: 3458
Critical_ROB_Stalls_Percent_2_Bucket_4: 10480
Non-critical_ROB_Stalls_Percent_2_Bucket_4: 1112
Critical_ROB_Stalls_Percent_2_Bucket_5: 4654
Non-critical_ROB_Stalls_Percent_2_Bucket_5: 662
Critical_ROB_Stalls_Percent_2_Bucket_6: 5064
Non-critical_ROB_Stalls_Percent_2_Bucket_6: 546
Critical_ROB_Stalls_Percent_3_Bucket_0: 1450839
Non-critical_ROB_Stalls_Percent_3_Bucket_0: 996230
Critical_ROB_Stalls_Percent_3_Bucket_1: 540583
Non-critical_ROB_Stalls_Percent_3_Bucket_1: 160424
Critical_ROB_Stalls_Percent_3_Bucket_2: 173508
Non-critical_ROB_Stalls_Percent_3_Bucket_2: 35915
Critical_ROB_Stalls_Percent_3_Bucket_3: 41393
Non-critical_ROB_Stalls_Percent_3_Bucket_3: 3208
Critical_ROB_Stalls_Percent_3_Bucket_4: 10488
Non-critical_ROB_Stalls_Percent_3_Bucket_4: 1104
Critical_ROB_Stalls_Percent_3_Bucket_5: 4654
Non-critical_ROB_Stalls_Percent_3_Bucket_5: 662
Critical_ROB_Stalls_Percent_3_Bucket_6: 5064
Non-critical_ROB_Stalls_Percent_3_Bucket_6: 546
Critical_ROB_Stalls_Percent_4_Bucket_0: 1594556
Non-critical_ROB_Stalls_Percent_4_Bucket_0: 852513
Critical_ROB_Stalls_Percent_4_Bucket_1: 561457
Non-critical_ROB_Stalls_Percent_4_Bucket_1: 139550
Critical_ROB_Stalls_Percent_4_Bucket_2: 179481
Non-critical_ROB_Stalls_Percent_4_Bucket_2: 29942
Critical_ROB_Stalls_Percent_4_Bucket_3: 41824
Non-critical_ROB_Stalls_Percent_4_Bucket_3: 2777
Critical_ROB_Stalls_Percent_4_Bucket_4: 10771
Non-critical_ROB_Stalls_Percent_4_Bucket_4: 821
Critical_ROB_Stalls_Percent_4_Bucket_5: 4693
Non-critical_ROB_Stalls_Percent_4_Bucket_5: 623
Critical_ROB_Stalls_Percent_4_Bucket_6: 5064
Non-critical_ROB_Stalls_Percent_4_Bucket_6: 546
Critical_ROB_Stalls_Percent_5_Bucket_0: 1727271
Non-critical_ROB_Stalls_Percent_5_Bucket_0: 719798
Critical_ROB_Stalls_Percent_5_Bucket_1: 590230
Non-critical_ROB_Stalls_Percent_5_Bucket_1: 110777
Critical_ROB_Stalls_Percent_5_Bucket_2: 189026
Non-critical_ROB_Stalls_Percent_5_Bucket_2: 20397
Critical_ROB_Stalls_Percent_5_Bucket_3: 41944
Non-critical_ROB_Stalls_Percent_5_Bucket_3: 2657
Critical_ROB_Stalls_Percent_5_Bucket_4: 10775
Non-critical_ROB_Stalls_Percent_5_Bucket_4: 817
Critical_ROB_Stalls_Percent_5_Bucket_5: 4697
Non-critical_ROB_Stalls_Percent_5_Bucket_5: 619
Critical_ROB_Stalls_Percent_5_Bucket_6: 5064
Non-critical_ROB_Stalls_Percent_5_Bucket_6: 546
Critical_ROB_Stalls_Percent_6_Bucket_0: 1872196
Non-critical_ROB_Stalls_Percent_6_Bucket_0: 574873
Critical_ROB_Stalls_Percent_6_Bucket_1: 612545
Non-critical_ROB_Stalls_Percent_6_Bucket_1: 88462
Critical_ROB_Stalls_Percent_6_Bucket_2: 193148
Non-critical_ROB_Stalls_Percent_6_Bucket_2: 16275
Critical_ROB_Stalls_Percent_6_Bucket_3: 41949
Non-critical_ROB_Stalls_Percent_6_Bucket_3: 2652
Critical_ROB_Stalls_Percent_6_Bucket_4: 10778
Non-critical_ROB_Stalls_Percent_6_Bucket_4: 814
Critical_ROB_Stalls_Percent_6_Bucket_5: 4698
Non-critical_ROB_Stalls_Percent_6_Bucket_5: 618
Critical_ROB_Stalls_Percent_6_Bucket_6: 5064
Non-critical_ROB_Stalls_Percent_6_Bucket_6: 546
Critical_ROB_Stalls_Percent_7_Bucket_0: 2021045
Non-critical_ROB_Stalls_Percent_7_Bucket_0: 426024
Critical_ROB_Stalls_Percent_7_Bucket_1: 632108
Non-critical_ROB_Stalls_Percent_7_Bucket_1: 68899
Critical_ROB_Stalls_Percent_7_Bucket_2: 195651
Non-critical_ROB_Stalls_Percent_7_Bucket_2: 13772
Critical_ROB_Stalls_Percent_7_Bucket_3: 42107
Non-critical_ROB_Stalls_Percent_7_Bucket_3: 2494
Critical_ROB_Stalls_Percent_7_Bucket_4: 10779
Non-critical_ROB_Stalls_Percent_7_Bucket_4: 813
Critical_ROB_Stalls_Percent_7_Bucket_5: 4698
Non-critical_ROB_Stalls_Percent_7_Bucket_5: 618
Critical_ROB_Stalls_Percent_7_Bucket_6: 5064
Non-critical_ROB_Stalls_Percent_7_Bucket_6: 546
Critical_ROB_Stalls_Percent_8_Bucket_0: 2168306
Non-critical_ROB_Stalls_Percent_8_Bucket_0: 278763
Critical_ROB_Stalls_Percent_8_Bucket_1: 652084
Non-critical_ROB_Stalls_Percent_8_Bucket_1: 48923
Critical_ROB_Stalls_Percent_8_Bucket_2: 198778
Non-critical_ROB_Stalls_Percent_8_Bucket_2: 10645
Critical_ROB_Stalls_Percent_8_Bucket_3: 42546
Non-critical_ROB_Stalls_Percent_8_Bucket_3: 2055
Critical_ROB_Stalls_Percent_8_Bucket_4: 10894
Non-critical_ROB_Stalls_Percent_8_Bucket_4: 698
Critical_ROB_Stalls_Percent_8_Bucket_5: 4723
Non-critical_ROB_Stalls_Percent_8_Bucket_5: 593
Critical_ROB_Stalls_Percent_8_Bucket_6: 5085
Non-critical_ROB_Stalls_Percent_8_Bucket_6: 525
Average ROB occupancy Load Stall Begin: 34.5767
Average ROB occupancy Load Stall End: 43.1004
Min ROB occupancy Load Stall Begin: 1
Max ROB occupancy Load Stall Begin: 352
Min ROB occupancy Load Stall End: 1
Max ROB occupancy Load Stall End: 352
Average ROB occupancy Critical Load Stall Begin: -nan
Average ROB occupancy Critical Load Stall End: -nan
Min ROB occupancy Critical Load Stall Begin: 400
Max ROB occupancy Critical Load Stall Begin: 0
Min ROB occupancy Critical Load Stall End: 400
Max ROB occupancy Critical Load Stall End: 0
 ROB Load Stall Begin Bucket Count 0: 2697742
 ROB Load Stall End Bucket Count 0: 2447069
 ROB Critical Load Stall Begin Bucket Count 0: 0
 ROB Critical Load Stall End Bucket Count 0: 0
 ROB Load Stall Begin Bucket Count 1: 524823
 ROB Load Stall End Bucket Count 1: 701007
 ROB Critical Load Stall Begin Bucket Count 1: 0
 ROB Critical Load Stall End Bucket Count 1: 0
 ROB Load Stall Begin Bucket Count 2: 149097
 ROB Load Stall End Bucket Count 2: 209423
 ROB Critical Load Stall Begin Bucket Count 2: 0
 ROB Critical Load Stall End Bucket Count 2: 0
 ROB Load Stall Begin Bucket Count 3: 34089
 ROB Load Stall End Bucket Count 3: 44601
 ROB Critical Load Stall Begin Bucket Count 3: 0
 ROB Critical Load Stall End Bucket Count 3: 0
 ROB Load Stall Begin Bucket Count 4: 9326
 ROB Load Stall End Bucket Count 4: 11592
 ROB Critical Load Stall Begin Bucket Count 4: 0
 ROB Critical Load Stall End Bucket Count 4: 0
 ROB Load Stall Begin Bucket Count 5: 4930
 ROB Load Stall End Bucket Count 5: 5316
 ROB Critical Load Stall Begin Bucket Count 5: 0
 ROB Critical Load Stall End Bucket Count 5: 0
 ROB Load Stall Begin Bucket Count 6: 4611
 ROB Load Stall End Bucket Count 6: 5610
 ROB Critical Load Stall Begin Bucket Count 6: 0
 ROB Critical Load Stall End Bucket Count 6: 0
PIST Tag Read Accesses: 2472772
PIST Read Accesses: 1236386
PIST Tag Write Accesses: 2472772
PIST Write Accesses: 1236386
Criticality detector called times: 3403233
Max global_stall_cycles_count: 1996186
Threshold Modified: 1 times, factor: -1
Sturdy critical IP cache stats: 
 Unused entries: 0
CIC Tag Read Accesses: 0
CIC Read Accesses: 0
CIC Tag Write Accesses: 0
CIC Write Accesses: 0
Wobbly critical IP cache stats: 
 Unused entries: 126
CIC Tag Read Accesses: 83381668
CIC Read Accesses: 0
CIC Tag Write Accesses: 2
CIC Write Accesses: 0
ITLB TOTAL     ACCESS:   10482937  HIT:    9756823  MISS:     726114  HIT %:    93.0734  MISS %:    6.92663   MPKI: 14.5223
ITLB LOAD TRANSLATION ACCESS:    8343282  HIT:    8282690  MISS:      60592  HIT %:    99.2738  MISS %:   0.726237   MPKI: 1.21184
ITLB TRANSLATION FROM L1D PREFETCHER ACCESS:    2139655  HIT:    1474133  MISS:     665522  HIT %:    68.8958  MISS %:    31.1042   MPKI: 13.3104
ITLB PREFETCH  REQUESTED:          0  ISSUED:          0  USEFUL:     543304  USELESS:     122218
ITLB USEFUL LOAD PREFETCHES:     543304 PREFETCH ISSUED TO LOWER LEVEL:          0  ACCURACY: inf
ITLB TIMELY PREFETCHES:     543304 LATE PREFETCHES: 212 DROPPED PREFETCHES: 5313
ITLB PREFETCHES SAME FILL-ORIGIN LEVEL: 0 DIFFERENT FILL-ORIGIN LEVEL: 0
ITLB AVERAGE MISS LATENCY: 13948.8 cycles
ITLB RQ	ACCESS:   15818747	FORWARD:          0	MERGED:    5287987	TO_CACHE:   10530760

DTLB TOTAL     ACCESS:   11231192  HIT:   10705947  MISS:     525245  HIT %:    95.3233  MISS %:    4.67666   MPKI: 10.5049
DTLB LOAD TRANSLATION ACCESS:   11231192  HIT:   10705947  MISS:     525245  HIT %:    95.3233  MISS %:    4.67666   MPKI: 10.5049
DTLB PREFETCH  REQUESTED:          0  ISSUED:          0  USEFUL:          0  USELESS:          0
DTLB USEFUL LOAD PREFETCHES:          0 PREFETCH ISSUED TO LOWER LEVEL:          0  ACCURACY: -nan
DTLB TIMELY PREFETCHES:          0 LATE PREFETCHES: 0 DROPPED PREFETCHES: 0
DTLB PREFETCHES SAME FILL-ORIGIN LEVEL: 0 DIFFERENT FILL-ORIGIN LEVEL: 0
DTLB AVERAGE MISS LATENCY: 9.42861 cycles
DTLB RQ	ACCESS:   14752096	FORWARD:          0	MERGED:    3491919	TO_CACHE:   11260177

STLB TOTAL     ACCESS:    1267278  HIT:    1255151  MISS:      12127  HIT %:    99.0431  MISS %:   0.956933   MPKI: 0.24254
STLB LOAD TRANSLATION ACCESS:     585625  HIT:     579212  MISS:       6413  HIT %:    98.9049  MISS %:    1.09507   MPKI: 0.12826
STLB TRANSLATION FROM L1D PREFETCHER ACCESS:     681653  HIT:     675939  MISS:       5714  HIT %:    99.1617  MISS %:   0.838256   MPKI: 0.11428
STLB PREFETCH  REQUESTED:          0  ISSUED:          0  USEFUL:       2459  USELESS:       3259
STLB USEFUL LOAD PREFETCHES:       2459 PREFETCH ISSUED TO LOWER LEVEL:          0  ACCURACY: inf
STLB TIMELY PREFETCHES:       2459 LATE PREFETCHES: 0 DROPPED PREFETCHES: 5313
STLB PREFETCHES SAME FILL-ORIGIN LEVEL: 0 DIFFERENT FILL-ORIGIN LEVEL: 0
STLB AVERAGE MISS LATENCY: 27.5884 cycles
STLB RQ	ACCESS:    1301259	FORWARD:          0	MERGED:      28668	TO_CACHE:    1272591

STLB Hit, L1D data hit: 0
STLB Hit, L2C data hit: 0
STLB Hit, LLC data hit: 0
STLB Hit, LLC data miss: 0
STLB STLB hints to L2: 0
L1D TOTAL     ACCESS:   14272026  HIT:   12795848  MISS:    1476178  HIT %:    89.6568  MISS %:    10.3432   MPKI: 29.5236
L1D LOAD      ACCESS:    7959668  HIT:    6818305  MISS:    1141363  HIT %:    85.6607  MISS %:    14.3393   MPKI: 22.8273
L1D RFO       ACCESS:    6269018  HIT:    5960088  MISS:     308930  HIT %:    95.0721  MISS %:    4.92789   MPKI: 6.1786
L1D PREFETCH  ACCESS:      43340  HIT:      17455  MISS:      25885  HIT %:    40.2746  MISS %:    59.7254   MPKI: 0.5177
L1D PREFETCH  REQUESTED:      89746  ISSUED:      89178  USEFUL:      13186  USELESS:      12931
L1D USEFUL LOAD PREFETCHES:      13186 PREFETCH ISSUED TO LOWER LEVEL:      26432  ACCURACY: 49.8865
L1D TIMELY PREFETCHES:      13186 LATE PREFETCHES: 526 DROPPED PREFETCHES: 0
L1D PREFETCHES SAME FILL-ORIGIN LEVEL: 26432 DIFFERENT FILL-ORIGIN LEVEL: 0
L1D AVERAGE MISS LATENCY: 6259.52 cycles
L1D RQ	ACCESS:   11308112	FORWARD:          0	MERGED:    3163068	TO_CACHE:    7996161
L1D WQ	ACCESS:    6823740	FORWARD:     148887	MERGED:      67805	TO_CACHE:    6755935
L1D PQ	ACCESS:      44591	FORWARD:          0	MERGED:          0	TO_CACHE:      44587

L1D UNIQUE REGIONS ACCESSED: 0
L1D REGIONS CONFLICTS: 0
L1D Cross Page Prefetch Requests: 0
L1D Same Page Prefetch Requests: 1043951
L1D ROI Sum of L1D PQ occupancy: 611806
L1D PREFETCHES PUSHED FROM L2C: 0
L1I TOTAL     ACCESS:   15715037  HIT:   11475130  MISS:    4239907  HIT %:    73.0201  MISS %:    26.9799   MPKI: 84.7981
L1I LOAD      ACCESS:    9807361  HIT:    9695858  MISS:     111503  HIT %:    98.8631  MISS %:    1.13693   MPKI: 2.23006
L1I PREFETCH  ACCESS:    5907676  HIT:    1779272  MISS:    4128404  HIT %:     30.118  MISS %:     69.882   MPKI: 82.5681
L1I PREFETCH  REQUESTED:    6148449  ISSUED:    6137984  USEFUL:    2950633  USELESS:    1177763
L1I USEFUL LOAD PREFETCHES:    2950633 PREFETCH ISSUED TO LOWER LEVEL:    4144190  ACCURACY: 71.1993
L1I TIMELY PREFETCHES:    2950633 LATE PREFETCHES: 15786 DROPPED PREFETCHES: 11809
L1I PREFETCHES SAME FILL-ORIGIN LEVEL: 4144190 DIFFERENT FILL-ORIGIN LEVEL: 0
L1I AVERAGE MISS LATENCY: 205217 cycles
L1I RQ	ACCESS:   13563805	FORWARD:          0	MERGED:    3744238	TO_CACHE:    9819567
L1I PQ	ACCESS:    6137984	FORWARD:          0	MERGED:     138804	TO_CACHE:    5999180

BTB TOTAL     ACCESS:    6033516  HIT:    4123215  MISS:    1910301  HIT %:    68.3385  MISS %:    31.6615   MPKI: 38.206
BTB BRANCH_DIRECT_JUMP	ACCESS:     490939  HIT:     331427  MISS:     159512
BTB BRANCH_INDIRECT	ACCESS:     175853  HIT:     140870  MISS:      34983
BTB BRANCH_CONDITIONAL	ACCESS:    2983032  HIT:    2460633  MISS:     522399
BTB BRANCH_DIRECT_CALL	ACCESS:    1002064  HIT:     623208  MISS:     378856
BTB BRANCH_INDIRECT_CALL	ACCESS:     189782  HIT:     117779  MISS:      72003
BTB BRANCH_RETURN	ACCESS:    1191846  HIT:     449298  MISS:     742548
BTB BRANCH_OTHER ACCESS:          0  HIT:          0  MISS:          0

L2C TOTAL     ACCESS:    6330026  HIT:    5843231  MISS:     486795  HIT %:    92.3097  MISS %:    7.69025   MPKI: 9.7359
L2C LOAD      ACCESS:    1236443  HIT:    1086789  MISS:     149654  HIT %:    87.8964  MISS %:    12.1036   MPKI: 2.99308
L2C DATA LOAD MPKI: 2.70312
L2C INSTRUCTION LOAD MPKI: 0.28996
L2C RFO       ACCESS:     308909  HIT:     279305  MISS:      29604  HIT %:    90.4166  MISS %:     9.5834   MPKI: 0.59208
L2C PREFETCH  ACCESS:    4170622  HIT:    3880240  MISS:     290382  HIT %:    93.0374  MISS %:    6.96256   MPKI: 5.80764
L2C DATA PREFETCH MPKI: 0.14396
L2C INSTRUCTION PREFETCH MPKI: 5.66368
L2C WRITEBACK ACCESS:     596210  HIT:     581611  MISS:      14599  HIT %:    97.5514  MISS %:    2.44863   MPKI: 0.29198
L2C LOAD TRANSLATION ACCESS:       6626  HIT:       4571  MISS:       2055  HIT %:    68.9858  MISS %:    31.0142   MPKI: 0.0411
L2C TRANSLATION FROM L1D PREFETCHER ACCESS:      11216  HIT:      10715  MISS:        501  HIT %:    95.5332  MISS %:    4.46683   MPKI: 0.01002
L2C PREFETCH  REQUESTED:          0  ISSUED:          0  USEFUL:       3256  USELESS:     289223
L2C USEFUL LOAD PREFETCHES:       3256 PREFETCH ISSUED TO LOWER LEVEL:     290382  ACCURACY: 1.12128
L2C TIMELY PREFETCHES:       3256 LATE PREFETCHES: 0 DROPPED PREFETCHES: 0
L2C PREFETCHES SAME FILL-ORIGIN LEVEL: 0 DIFFERENT FILL-ORIGIN LEVEL: 0
L2C AVERAGE MISS LATENCY: 32.0104 cycles
L2C RQ	ACCESS:    1563305	FORWARD:          0	MERGED:          0	TO_CACHE:    1563194
L2C WQ	ACCESS:     596210	FORWARD:        111	MERGED:          0	TO_CACHE:     596210
L2C PQ	ACCESS:    4170622	FORWARD:          0	MERGED:          0	TO_CACHE:    4170622

L2C Instructions Evicting Data 112115
L2C Translations Evicting Data 1169
L2C Data Evicting Data 68323
L2C Instructions Evicting Instructions 184507
L2C Translations Evicting Instructions 1335
L2C Data Evicting Instructions 102249
L2C Instructions Evicting Translations 1060
L2C Translations Evicting Translations 52
L2C Data Evicting Translations 1386
L2C Dense regions hint from L2: 0
PSCL5 TOTAL     ACCESS:      17440  HIT:      17440  MISS:          0  HIT %:        100  MISS %:          0   MPKI: 0
PSCL5 LOAD TRANSLATION ACCESS:       6413  HIT:       6413  MISS:          0  HIT %:        100  MISS %:          0   MPKI: 0
PSCL5 TRANSLATION FROM L1D PREFETCHER ACCESS:      11027  HIT:      11027  MISS:          0  HIT %:        100  MISS %:          0   MPKI: 0
PSCL5 PREFETCH  REQUESTED:          0  ISSUED:          0  USEFUL:          0  USELESS:          0
PSCL5 USEFUL LOAD PREFETCHES:          0 PREFETCH ISSUED TO LOWER LEVEL:          0  ACCURACY: -nan
PSCL5 TIMELY PREFETCHES:          0 LATE PREFETCHES: 0 DROPPED PREFETCHES: 0
PSCL5 PREFETCHES SAME FILL-ORIGIN LEVEL: 0 DIFFERENT FILL-ORIGIN LEVEL: 0

PSCL4 TOTAL     ACCESS:       9102  HIT:       9094  MISS:          8  HIT %:    99.9121  MISS %:  0.0878928   MPKI: 0.00016
PSCL4 LOAD TRANSLATION ACCESS:       3493  HIT:       3485  MISS:          8  HIT %:     99.771  MISS %:   0.229029   MPKI: 0.00016
PSCL4 TRANSLATION FROM L1D PREFETCHER ACCESS:       5609  HIT:       5609  MISS:          0  HIT %:        100  MISS %:          0   MPKI: 0
PSCL4 PREFETCH  REQUESTED:          0  ISSUED:          0  USEFUL:          0  USELESS:          0
PSCL4 USEFUL LOAD PREFETCHES:          0 PREFETCH ISSUED TO LOWER LEVEL:          0  ACCURACY: -nan
PSCL4 TIMELY PREFETCHES:          0 LATE PREFETCHES: 0 DROPPED PREFETCHES: 0
PSCL4 PREFETCHES SAME FILL-ORIGIN LEVEL: 0 DIFFERENT FILL-ORIGIN LEVEL: 0

PSCL3 TOTAL     ACCESS:      17133  HIT:      17118  MISS:         15  HIT %:    99.9124  MISS %:  0.0875503   MPKI: 0.0003
PSCL3 LOAD TRANSLATION ACCESS:       6283  HIT:       6268  MISS:         15  HIT %:    99.7613  MISS %:   0.238739   MPKI: 0.0003
PSCL3 TRANSLATION FROM L1D PREFETCHER ACCESS:      10850  HIT:      10850  MISS:          0  HIT %:        100  MISS %:          0   MPKI: 0
PSCL3 PREFETCH  REQUESTED:          0  ISSUED:          0  USEFUL:          0  USELESS:          0
PSCL3 USEFUL LOAD PREFETCHES:          0 PREFETCH ISSUED TO LOWER LEVEL:          0  ACCURACY: -nan
PSCL3 TIMELY PREFETCHES:          0 LATE PREFETCHES: 0 DROPPED PREFETCHES: 0
PSCL3 PREFETCHES SAME FILL-ORIGIN LEVEL: 0 DIFFERENT FILL-ORIGIN LEVEL: 0

PSCL2 TOTAL     ACCESS:      17356  HIT:      17073  MISS:        283  HIT %:    98.3694  MISS %:    1.63056   MPKI: 0.00566
PSCL2 LOAD TRANSLATION ACCESS:       6503  HIT:       6220  MISS:        283  HIT %:    95.6482  MISS %:    4.35184   MPKI: 0.00566
PSCL2 TRANSLATION FROM L1D PREFETCHER ACCESS:      10853  HIT:      10853  MISS:          0  HIT %:        100  MISS %:          0   MPKI: 0
PSCL2 PREFETCH  REQUESTED:          0  ISSUED:          0  USEFUL:          0  USELESS:          0
PSCL2 USEFUL LOAD PREFETCHES:          0 PREFETCH ISSUED TO LOWER LEVEL:          0  ACCURACY: -nan
PSCL2 TIMELY PREFETCHES:          0 LATE PREFETCHES: 0 DROPPED PREFETCHES: 0
PSCL2 PREFETCHES SAME FILL-ORIGIN LEVEL: 0 DIFFERENT FILL-ORIGIN LEVEL: 0

LLC TOTAL     ACCESS:     517098  HIT:     506438  MISS:      10660  HIT %:    97.9385  MISS %:     2.0615   MPKI: 0.2132
LLC LOAD      ACCESS:     149654  HIT:     141982  MISS:       7672  HIT %:    94.8735  MISS %:    5.12649   MPKI: 0.15344
LLC RFO       ACCESS:      29604  HIT:      27724  MISS:       1880  HIT %:    93.6495  MISS %:    6.35049   MPKI: 0.0376
LLC PREFETCH  ACCESS:     290382  HIT:     289402  MISS:        980  HIT %:    99.6625  MISS %:   0.337486   MPKI: 0.0196
LLC WRITEBACK ACCESS:      44902  HIT:      44811  MISS:         91  HIT %:    99.7973  MISS %:   0.202664   MPKI: 0.00182
LLC LOAD TRANSLATION ACCESS:       2055  HIT:       2021  MISS:         34  HIT %:    98.3455  MISS %:     1.6545   MPKI: 0.00068
LLC TRANSLATION FROM L1D PREFETCHER ACCESS:        501  HIT:        498  MISS:          3  HIT %:    99.4012  MISS %:   0.598802   MPKI: 6e-05
LLC PREFETCH  REQUESTED:          0  ISSUED:          0  USEFUL:       3604  USELESS:       4743
LLC USEFUL LOAD PREFETCHES:       3604 PREFETCH ISSUED TO LOWER LEVEL:        980  ACCURACY: 367.755
LLC TIMELY PREFETCHES:       3604 LATE PREFETCHES: 0 DROPPED PREFETCHES: 0
LLC PREFETCHES SAME FILL-ORIGIN LEVEL: 0 DIFFERENT FILL-ORIGIN LEVEL: 0
LLC AVERAGE MISS LATENCY: 132.514 cycles
LLC RQ	ACCESS:     181814	FORWARD:          0	MERGED:          0	TO_CACHE:     181814
LLC WQ	ACCESS:      44902	FORWARD:          0	MERGED:          0	TO_CACHE:      44902
LLC PQ	ACCESS:     290382	FORWARD:          0	MERGED:          0	TO_CACHE:     290382

LLC Dense regions hint to LLC: 0

RAW hits: 1081659
Loads Generated: 12389772
Loads sent to L1D: 11308112
Stores Generated: 6823741
Stores sent to L1D: 6823740
Major fault: 0 Minor fault: 2136
Allocated PAGES: 2136
I-Shadow cache 408 bytes
Touched + WorthPF tables 6144 bytes 
MMA filter 174 bytes 
FNL filter 272 bytes 
TOTAL PREFETCHER STORAGE SIZE: 25174 bytes
CPU 0 L1I next line prefetcher final stats

stream: 
stream:times selected: 749460
stream:pref_filled: 607256
stream:pref_useful: 288636
stream:pref_late: 10778
stream:misses: 5582
stream:misses_by_poll: 0

CS: 
CS:times selected: 84527
CS:pref_filled: 23188
CS:pref_useful: 22334
CS:pref_late: 448
CS:misses: 9813
CS:misses_by_poll: 0

CPLX: 
CPLX:times selected: 664452
CPLX:pref_filled: 7959
CPLX:pref_useful: 1639
CPLX:pref_late: 224
CPLX:misses: 64790
CPLX:misses_by_poll: 0

NL_L1: 
NL:times selected: 1581
NL:pref_filled: 116
NL:pref_useful: 61
NL:pref_late: 4
NL:misses: 106
NL:misses_by_poll: 0

total selections: 1500020
total_filled: 25885
total_useful: 13186
total_late: 12850
total_polluted: 0
total_misses_after_warmup: 36121
conflicts: 133789
Degree Incremented Times: 56137
Degree Decremented Times: 25078

L1 IP Table Write Accesses: 205323
L1 IP Table Read Accesses: 71534
L1 RST Write Accesses: 35213
L1 RST Read Accesses: 70426
L1 CSPT Write Accesses: 35213
L1 CSPT Read Accesses: 63249
L1 RR Filter Tag Write Accesses: 45159
L1 RR Filter Tag Read Accesses: 6014223
L1 IP Table Tag Write Accesses: 346492
L1 IP Table Tag Read Accesses: 346492
L1 RST Tag Write Accesses: 0
L1 RST Tag Read Accesses: 292776
L1 RR Filter Write Accesses: 0
L1 RR Filter Read Accesses: 228392
test: 67586

DRAM Statistics
 CHANNEL 0
 RQ ROW_BUFFER_HIT:       4217  ROW_BUFFER_MISS:       6351
 DBUS_CONGESTED:          0
 WQ ROW_BUFFER_HIT:        188  ROW_BUFFER_MISS:       1509  FULL:          0

 AVG_CONGESTED_CYCLE: -
 All warmup complete: 2
Channel 0 Bank busy for read cycles: 0
Channel 0 Bank busy for write cycles: 0
Channel 0
Rank 0
0banks busy for read cycles: 79049370
0banks busy for write cycles: 874
1banks busy for read cycles: 822573
1banks busy for write cycles: 181360
2banks busy for read cycles: 46808
2banks busy for write cycles: 59204
3banks busy for read cycles: 25217
3banks busy for write cycles: 36733
4banks busy for read cycles: 6213
4banks busy for write cycles: 19161
5banks busy for read cycles: 4779
5banks busy for write cycles: 11972
6banks busy for read cycles: 4484
6banks busy for write cycles: 4799
7banks busy for read cycles: 4946
7banks busy for write cycles: 2314
8banks busy for read cycles: 7675
8banks busy for write cycles: 874

CPU 0 Branch Prediction Accuracy: 99.8445% MPKI: 0.29148 Average ROB Occupancy at Mispredict: 79.7507
Branch types
NOT_BRANCH: 40627788 81.2556%
BRANCH_DIRECT_JUMP: 490939 0.981878%
BRANCH_INDIRECT: 175853 0.351706%
BRANCH_CONDITIONAL: 6321387 12.6428%
BRANCH_DIRECT_CALL: 1002064 2.00413%
BRANCH_INDIRECT_CALL: 189782 0.379564%
BRANCH_RETURN: 1191846 2.38369%
BRANCH_OTHER: 0 0%

DRAM PAGES: 1048576
Allocated PAGES: 2136
