
*** ChampSim Multicore Out-of-Order Simulator ***

Warmup Instructions: 50000000
Simulation Instructions: 50000000
Number of CPUs: 1
LLC sets: 2048
LLC ways: 16
Off-chip DRAM Size: 4096 MB Channels: 1 Width: 64-bit Data Rate: 6400 MT/s
CPU 0 runs ../IPC-traces//server_038.champsimtrace.xz
.xz
NUM_OF_IPS_IN_CRITICAL_IP_TRAINING: 64
NUM_OF_CRITICAL_IP_TRAINING_TABLE_WAYS: 2
NUM_OF_CRITICAL_IP_TRAINING_TABLE_SETS: 32
WOBBLY_CRITICAL_IP_CACHE_SETS: 32
WOBBLY_CRITICAL_IP_CACHE_WAYS: 4
BTB has LRU replacement policy
ITLB has LRU replacement policy
DTLB has LRU replacement policy
STLB has LRU replacement policy
CPU 0 L1I next line prefetcher
L1I has LRU replacement policy
IP Table Entries: 64
L1D has LRU replacement policy
Initialize SRRIP state for L2C
Initialize DRRIP state for LLC
Heartbeat CPU 0 instructions: 10000001 cycles: 2750436 heartbeat IPC: 3.63579 cumulative IPC: 3.63579 (Simulation time: 0 hr 3 min 21 sec) 
Heartbeat CPU 0 instructions: 20000001 cycles: 5499383 heartbeat IPC: 3.63776 cumulative IPC: 3.63677 (Simulation time: 0 hr 6 min 7 sec) 
Heartbeat CPU 0 instructions: 30000003 cycles: 8246244 heartbeat IPC: 3.64052 cumulative IPC: 3.63802 (Simulation time: 0 hr 8 min 53 sec) 
Heartbeat CPU 0 instructions: 40000001 cycles: 10994822 heartbeat IPC: 3.63824 cumulative IPC: 3.63808 (Simulation time: 0 hr 11 min 9 sec) 
Heartbeat CPU 0 instructions: 50000003 cycles: 13743911 heartbeat IPC: 3.63757 cumulative IPC: 3.63797 (Simulation time: 0 hr 13 min 22 sec) 

Warmup complete CPU 0 instructions: 50000003 cycles: 13743911 (Simulation time: 0 hr 13 min 22 sec) 

% increase in all ip prefetch 291.123
% increase in all ip prefetch -1.88423
Heartbeat CPU 0 instructions: 60000000 cycles: 25283922 heartbeat IPC: 0.86655 cumulative IPC: 0.86655 (Simulation time: 0 hr 15 min 51 sec) 
Heartbeat CPU 0 instructions: 70000001 cycles: 36749185 heartbeat IPC: 0.8722 cumulative IPC: 0.869366 (Simulation time: 0 hr 18 min 21 sec) 
Heartbeat CPU 0 instructions: 80000002 cycles: 48225801 heartbeat IPC: 0.871337 cumulative IPC: 0.870022 (Simulation time: 0 hr 20 min 46 sec) 
Heartbeat CPU 0 instructions: 90000001 cycles: 59696397 heartbeat IPC: 0.871794 cumulative IPC: 0.870464 (Simulation time: 0 hr 23 min 8 sec) 
*** Reached end of trace for Core: 0 Repeating trace: ../IPC-traces//server_038.champsimtrace.xz
Heartbeat CPU 0 instructions: 100000002 cycles: 71178532 heartbeat IPC: 0.870918 cumulative IPC: 0.870555 (Simulation time: 0 hr 25 min 22 sec) 
Finished CPU 0 instructions: 50000003 cycles: 57434622 cumulative IPC: 0.870555 (Simulation time: 0 hr 25 min 22 sec) 

ChampSim completed all CPUs

Region of Interest Statistics

CPU 0 cumulative IPC: 0.870555 instructions: 50000003 cycles: 57434622

CPU 0 Average Load ROB stall cycles: 1.47436e+07
CPU 0 Fraction of times ROB stalled by Loads: 34.716
CPU 0 Percentage of Load stall cycles in Total stall cycles: 2.25525e+08
Issued all: 25218615
Issued LT all: 19476165
rob_not_full_when_issued_lt_all: 19309487
Issued LT one: 14475472
rob_not_full_when_issued_lt_one: 14322137
critical_ip_candidate_identification_operations: 4862444
critical_ip_candidate_identification_operation_per_cycle: 0.0846605
 Total stall cycles: 45783043
 Total load stall cycles: 103252183445212
Unique Load IPs: 5269
CPU 0 NUM of IPS identified critical: 1
CPU 0 Num of Load IPs stalling ROB: 4307
Threshold modification factor: -1
Max PIST entries: 64
Min PIST entries: 0
Avg PIST entries: 32
Trouble in retire width: 0.811876
MaC = Marked as critical.
lt_50_percent_before_Mac: 1
gt_90_percent_before_Mac: 0
gt_75_percent_before_Mac: 0
gt_50_percent_before_Mac: 0
stall_proportion_bin_same_before_after: 0
stall_proportion_bin_lower_before_after: 0
stall_proportion_bin_upper_before_after: 0
average_stall_proportion_before: 0.00887351
average_stall_proportion_after: 0.0229779
Critical IP stalls, total frequency: 1845
Non-critical IP stalls, total frequency: 2429377
Total Freq all stalling IPs: 2431222
Critical_IP_Detector_Accuracy_70: 0
Critical_IP_Detector_Accuracy_80: 0
Critical_IP_Detector_Accuracy_90: 1
Critical_IP_Detector_Coverage_70: 0
Critical_IP_Detector_Coverage_80: 0
Critical_IP_Detector_Coverage_90: 0.0015528
stat_90_percent_critical_ip_stalls_freq: 2188341
stat_90_percent_non_critical_ip_stalls_freq: 242881
AVERAGE_ROB_Occupancy_90_Percent_Critical_IP_Stalls: 66.1878
AVERAGE_ROB_Occupancy_90_Percent_Non_Critical_IP_Stalls: 67.1891
Critical_IP_ROB_Stalls_Bucket_0: 5
Non-critical_IP_ROB_Stalls_Bucket_0: 1087729
Critical_IP_ROB_Stalls_Bucket_1: 24
Non-critical_IP_ROB_Stalls_Bucket_1: 884945
Critical_IP_ROB_Stalls_Bucket_2: 112
Non-critical_IP_ROB_Stalls_Bucket_2: 323122
Critical_IP_ROB_Stalls_Bucket_3: 122
Non-critical_IP_ROB_Stalls_Bucket_3: 93078
Critical_IP_ROB_Stalls_Bucket_4: 87
Non-critical_IP_ROB_Stalls_Bucket_4: 20127
Critical_IP_ROB_Stalls_Bucket_5: 134
Non-critical_IP_ROB_Stalls_Bucket_5: 13334
Critical_IP_ROB_Stalls_Bucket_6: 1361
Non-critical_IP_ROB_Stalls_Bucket_6: 7042
0 => IPs accounting for >50 percent of stalls, 1 => 55, 2 => 60, 3 => 65 and so on till 90.
percent50: 50.0922 num IPs:  244
percent55: 55.0461 num IPs: 282
percent60: 60.0823 num IPs: 321
percent65: 65.0108 num IPs: 360
percent70: 70.1111 num IPs: 402
percent75: 75.098 num IPs: 446
percent80: 80.0716 num IPs: 495
percent85: 85.0633 num IPs: 553
percent90: 90.0099 num IPs: 644
Critical_ROB_Stalls_Percent_0_Bucket_0: 519205
Non-critical_ROB_Stalls_Percent_0_Bucket_0: 568529
Critical_ROB_Stalls_Percent_0_Bucket_1: 437381
Non-critical_ROB_Stalls_Percent_0_Bucket_1: 447588
Critical_ROB_Stalls_Percent_0_Bucket_2: 186514
Non-critical_ROB_Stalls_Percent_0_Bucket_2: 136720
Critical_ROB_Stalls_Percent_0_Bucket_3: 45480
Non-critical_ROB_Stalls_Percent_0_Bucket_3: 47720
Critical_ROB_Stalls_Percent_0_Bucket_4: 14415
Non-critical_ROB_Stalls_Percent_0_Bucket_4: 5799
Critical_ROB_Stalls_Percent_0_Bucket_5: 10752
Non-critical_ROB_Stalls_Percent_0_Bucket_5: 2716
Critical_ROB_Stalls_Percent_0_Bucket_6: 4106
Non-critical_ROB_Stalls_Percent_0_Bucket_6: 4297
Critical_ROB_Stalls_Percent_1_Bucket_0: 554681
Non-critical_ROB_Stalls_Percent_1_Bucket_0: 533053
Critical_ROB_Stalls_Percent_1_Bucket_1: 505073
Non-critical_ROB_Stalls_Percent_1_Bucket_1: 379896
Critical_ROB_Stalls_Percent_1_Bucket_2: 201109
Non-critical_ROB_Stalls_Percent_1_Bucket_2: 122125
Critical_ROB_Stalls_Percent_1_Bucket_3: 47846
Non-critical_ROB_Stalls_Percent_1_Bucket_3: 45354
Critical_ROB_Stalls_Percent_1_Bucket_4: 14563
Non-critical_ROB_Stalls_Percent_1_Bucket_4: 5651
Critical_ROB_Stalls_Percent_1_Bucket_5: 10878
Non-critical_ROB_Stalls_Percent_1_Bucket_5: 2590
Critical_ROB_Stalls_Percent_1_Bucket_6: 4143
Non-critical_ROB_Stalls_Percent_1_Bucket_6: 4260
Critical_ROB_Stalls_Percent_2_Bucket_0: 592504
Non-critical_ROB_Stalls_Percent_2_Bucket_0: 495230
Critical_ROB_Stalls_Percent_2_Bucket_1: 561210
Non-critical_ROB_Stalls_Percent_2_Bucket_1: 323759
Critical_ROB_Stalls_Percent_2_Bucket_2: 220783
Non-critical_ROB_Stalls_Percent_2_Bucket_2: 102451
Critical_ROB_Stalls_Percent_2_Bucket_3: 56549
Non-critical_ROB_Stalls_Percent_2_Bucket_3: 36651
Critical_ROB_Stalls_Percent_2_Bucket_4: 14647
Non-critical_ROB_Stalls_Percent_2_Bucket_4: 5567
Critical_ROB_Stalls_Percent_2_Bucket_5: 10898
Non-critical_ROB_Stalls_Percent_2_Bucket_5: 2570
Critical_ROB_Stalls_Percent_2_Bucket_6: 4143
Non-critical_ROB_Stalls_Percent_2_Bucket_6: 4260
Critical_ROB_Stalls_Percent_3_Bucket_0: 649811
Non-critical_ROB_Stalls_Percent_3_Bucket_0: 437923
Critical_ROB_Stalls_Percent_3_Bucket_1: 605016
Non-critical_ROB_Stalls_Percent_3_Bucket_1: 279953
Critical_ROB_Stalls_Percent_3_Bucket_2: 234152
Non-critical_ROB_Stalls_Percent_3_Bucket_2: 89082
Critical_ROB_Stalls_Percent_3_Bucket_3: 61363
Non-critical_ROB_Stalls_Percent_3_Bucket_3: 31837
Critical_ROB_Stalls_Percent_3_Bucket_4: 15033
Non-critical_ROB_Stalls_Percent_3_Bucket_4: 5181
Critical_ROB_Stalls_Percent_3_Bucket_5: 10933
Non-critical_ROB_Stalls_Percent_3_Bucket_5: 2535
Critical_ROB_Stalls_Percent_3_Bucket_6: 4249
Non-critical_ROB_Stalls_Percent_3_Bucket_6: 4154
Critical_ROB_Stalls_Percent_4_Bucket_0: 707048
Non-critical_ROB_Stalls_Percent_4_Bucket_0: 380686
Critical_ROB_Stalls_Percent_4_Bucket_1: 647790
Non-critical_ROB_Stalls_Percent_4_Bucket_1: 237179
Critical_ROB_Stalls_Percent_4_Bucket_2: 252405
Non-critical_ROB_Stalls_Percent_4_Bucket_2: 70829
Critical_ROB_Stalls_Percent_4_Bucket_3: 66761
Non-critical_ROB_Stalls_Percent_4_Bucket_3: 26439
Critical_ROB_Stalls_Percent_4_Bucket_4: 15352
Non-critical_ROB_Stalls_Percent_4_Bucket_4: 4862
Critical_ROB_Stalls_Percent_4_Bucket_5: 10951
Non-critical_ROB_Stalls_Percent_4_Bucket_5: 2517
Critical_ROB_Stalls_Percent_4_Bucket_6: 4249
Non-critical_ROB_Stalls_Percent_4_Bucket_6: 4154
Critical_ROB_Stalls_Percent_5_Bucket_0: 776851
Non-critical_ROB_Stalls_Percent_5_Bucket_0: 310883
Critical_ROB_Stalls_Percent_5_Bucket_1: 690802
Non-critical_ROB_Stalls_Percent_5_Bucket_1: 194167
Critical_ROB_Stalls_Percent_5_Bucket_2: 256512
Non-critical_ROB_Stalls_Percent_5_Bucket_2: 66722
Critical_ROB_Stalls_Percent_5_Bucket_3: 70257
Non-critical_ROB_Stalls_Percent_5_Bucket_3: 22943
Critical_ROB_Stalls_Percent_5_Bucket_4: 15967
Non-critical_ROB_Stalls_Percent_5_Bucket_4: 4247
Critical_ROB_Stalls_Percent_5_Bucket_5: 11160
Non-critical_ROB_Stalls_Percent_5_Bucket_5: 2308
Critical_ROB_Stalls_Percent_5_Bucket_6: 4250
Non-critical_ROB_Stalls_Percent_5_Bucket_6: 4153
Critical_ROB_Stalls_Percent_6_Bucket_0: 842032
Non-critical_ROB_Stalls_Percent_6_Bucket_0: 245702
Critical_ROB_Stalls_Percent_6_Bucket_1: 729469
Non-critical_ROB_Stalls_Percent_6_Bucket_1: 155500
Critical_ROB_Stalls_Percent_6_Bucket_2: 270140
Non-critical_ROB_Stalls_Percent_6_Bucket_2: 53094
Critical_ROB_Stalls_Percent_6_Bucket_3: 73509
Non-critical_ROB_Stalls_Percent_6_Bucket_3: 19691
Critical_ROB_Stalls_Percent_6_Bucket_4: 16134
Non-critical_ROB_Stalls_Percent_6_Bucket_4: 4080
Critical_ROB_Stalls_Percent_6_Bucket_5: 11183
Non-critical_ROB_Stalls_Percent_6_Bucket_5: 2285
Critical_ROB_Stalls_Percent_6_Bucket_6: 4251
Non-critical_ROB_Stalls_Percent_6_Bucket_6: 4152
Critical_ROB_Stalls_Percent_7_Bucket_0: 918287
Non-critical_ROB_Stalls_Percent_7_Bucket_0: 169447
Critical_ROB_Stalls_Percent_7_Bucket_1: 760202
Non-critical_ROB_Stalls_Percent_7_Bucket_1: 124767
Critical_ROB_Stalls_Percent_7_Bucket_2: 278284
Non-critical_ROB_Stalls_Percent_7_Bucket_2: 44950
Critical_ROB_Stalls_Percent_7_Bucket_3: 76108
Non-critical_ROB_Stalls_Percent_7_Bucket_3: 17092
Critical_ROB_Stalls_Percent_7_Bucket_4: 16432
Non-critical_ROB_Stalls_Percent_7_Bucket_4: 3782
Critical_ROB_Stalls_Percent_7_Bucket_5: 12467
Non-critical_ROB_Stalls_Percent_7_Bucket_5: 1001
Critical_ROB_Stalls_Percent_7_Bucket_6: 6297
Non-critical_ROB_Stalls_Percent_7_Bucket_6: 2106
Critical_ROB_Stalls_Percent_8_Bucket_0: 982175
Non-critical_ROB_Stalls_Percent_8_Bucket_0: 105559
Critical_ROB_Stalls_Percent_8_Bucket_1: 796541
Non-critical_ROB_Stalls_Percent_8_Bucket_1: 88428
Critical_ROB_Stalls_Percent_8_Bucket_2: 290651
Non-critical_ROB_Stalls_Percent_8_Bucket_2: 32583
Critical_ROB_Stalls_Percent_8_Bucket_3: 81870
Non-critical_ROB_Stalls_Percent_8_Bucket_3: 11330
Critical_ROB_Stalls_Percent_8_Bucket_4: 16756
Non-critical_ROB_Stalls_Percent_8_Bucket_4: 3458
Critical_ROB_Stalls_Percent_8_Bucket_5: 12660
Non-critical_ROB_Stalls_Percent_8_Bucket_5: 808
Critical_ROB_Stalls_Percent_8_Bucket_6: 7688
Non-critical_ROB_Stalls_Percent_8_Bucket_6: 715
Average ROB occupancy Load Stall Begin: 54.7809
Average ROB occupancy Load Stall End: 66.2878
Min ROB occupancy Load Stall Begin: 1
Max ROB occupancy Load Stall Begin: 352
Min ROB occupancy Load Stall End: 1
Max ROB occupancy Load Stall End: 352
Average ROB occupancy Critical Load Stall Begin: 302.978
Average ROB occupancy Critical Load Stall End: 306.948
Min ROB occupancy Critical Load Stall Begin: 15
Max ROB occupancy Critical Load Stall Begin: 352
Min ROB occupancy Critical Load Stall End: 30
Max ROB occupancy Critical Load Stall End: 352
 ROB Load Stall Begin Bucket Count 0: 1415727
 ROB Load Stall End Bucket Count 0: 1087734
 ROB Critical Load Stall Begin Bucket Count 0: 16
 ROB Critical Load Stall End Bucket Count 0: 4
 ROB Load Stall Begin Bucket Count 1: 693921
 ROB Load Stall End Bucket Count 1: 884969
 ROB Critical Load Stall Begin Bucket Count 1: 33
 ROB Critical Load Stall End Bucket Count 1: 24
 ROB Load Stall Begin Bucket Count 2: 232351
 ROB Load Stall End Bucket Count 2: 323234
 ROB Critical Load Stall Begin Bucket Count 2: 120
 ROB Critical Load Stall End Bucket Count 2: 112
 ROB Load Stall Begin Bucket Count 3: 59203
 ROB Load Stall End Bucket Count 3: 93200
 ROB Critical Load Stall Begin Bucket Count 3: 107
 ROB Critical Load Stall End Bucket Count 3: 122
 ROB Load Stall Begin Bucket Count 4: 10624
 ROB Load Stall End Bucket Count 4: 20214
 ROB Critical Load Stall Begin Bucket Count 4: 86
 ROB Critical Load Stall End Bucket Count 4: 85
 ROB Load Stall Begin Bucket Count 5: 12943
 ROB Load Stall End Bucket Count 5: 13468
 ROB Critical Load Stall Begin Bucket Count 5: 138
 ROB Critical Load Stall End Bucket Count 5: 134
 ROB Load Stall Begin Bucket Count 6: 6453
 ROB Load Stall End Bucket Count 6: 8403
 ROB Critical Load Stall Begin Bucket Count 6: 1286
 ROB Critical Load Stall End Bucket Count 6: 1305
PIST Tag Read Accesses: 3168580
PIST Read Accesses: 1584290
PIST Tag Write Accesses: 3168580
PIST Write Accesses: 1584290
Criticality detector called times: 2429436
Max global_stall_cycles_count: 2821300
Threshold Modified: 1 times, factor: -1
Sturdy critical IP cache stats: 
 Unused entries: 0
CIC Tag Read Accesses: 0
CIC Read Accesses: 0
CIC Tag Write Accesses: 0
CIC Write Accesses: 0
Wobbly critical IP cache stats: 
 Unused entries: 127
CIC Tag Read Accesses: 76412617
CIC Read Accesses: 0
CIC Tag Write Accesses: 1
CIC Write Accesses: 0
ITLB TOTAL     ACCESS:   10598843  HIT:    9878411  MISS:     720432  HIT %:    93.2027  MISS %:    6.79727   MPKI: 14.4086
ITLB LOAD TRANSLATION ACCESS:    8001371  HIT:    7967816  MISS:      33555  HIT %:    99.5806  MISS %:   0.419366   MPKI: 0.6711
ITLB TRANSLATION FROM L1D PREFETCHER ACCESS:    2597472  HIT:    1910595  MISS:     686877  HIT %:    73.5559  MISS %:    26.4441   MPKI: 13.7375
ITLBprefetch_cycle_count: 0 prefetches_per_prefetch_cycle: -nan
ITLB PREFETCH  REQUESTED:          0  ISSUED:          0  USEFUL:     645897  USELESS:      40979
ITLB USEFUL LOAD PREFETCHES:     645897 PREFETCH ISSUED TO LOWER LEVEL:          0  ACCURACY: inf
ITLB TIMELY PREFETCHES:     645897 LATE PREFETCHES: 2 DROPPED PREFETCHES: 79
ITLB PREFETCHES SAME FILL-ORIGIN LEVEL: 0 DIFFERENT FILL-ORIGIN LEVEL: 0
ITLB AVERAGE MISS LATENCY: 165.252 cycles
ITLB RQ	ACCESS:   16259722	FORWARD:          0	MERGED:    5572960	TO_CACHE:   10686762

DTLB TOTAL     ACCESS:    9387662  HIT:    8867790  MISS:     519872  HIT %:    94.4622  MISS %:    5.53782   MPKI: 10.3974
DTLB LOAD TRANSLATION ACCESS:    9387662  HIT:    8867790  MISS:     519872  HIT %:    94.4622  MISS %:    5.53782   MPKI: 10.3974
DTLBprefetch_cycle_count: 0 prefetches_per_prefetch_cycle: -nan
DTLB PREFETCH  REQUESTED:          0  ISSUED:          0  USEFUL:          0  USELESS:          0
DTLB USEFUL LOAD PREFETCHES:          0 PREFETCH ISSUED TO LOWER LEVEL:          0  ACCURACY: -nan
DTLB TIMELY PREFETCHES:          0 LATE PREFETCHES: 0 DROPPED PREFETCHES: 0
DTLB PREFETCHES SAME FILL-ORIGIN LEVEL: 0 DIFFERENT FILL-ORIGIN LEVEL: 0
DTLB AVERAGE MISS LATENCY: 9.86617 cycles
DTLB RQ	ACCESS:   13423189	FORWARD:          0	MERGED:    3993571	TO_CACHE:    9429618

STLB TOTAL     ACCESS:    1244477  HIT:    1238603  MISS:       5874  HIT %:     99.528  MISS %:   0.472006   MPKI: 0.11748
STLB LOAD TRANSLATION ACCESS:     553425  HIT:     547672  MISS:       5753  HIT %:    98.9605  MISS %:    1.03953   MPKI: 0.11506
STLB TRANSLATION FROM L1D PREFETCHER ACCESS:     691052  HIT:     690931  MISS:        121  HIT %:    99.9825  MISS %:  0.0175095   MPKI: 0.00242
STLBprefetch_cycle_count: 0 prefetches_per_prefetch_cycle: -nan
STLB PREFETCH  REQUESTED:          0  ISSUED:          0  USEFUL:         65  USELESS:         47
STLB USEFUL LOAD PREFETCHES:         65 PREFETCH ISSUED TO LOWER LEVEL:          0  ACCURACY: inf
STLB TIMELY PREFETCHES:         65 LATE PREFETCHES: 0 DROPPED PREFETCHES: 79
STLB PREFETCHES SAME FILL-ORIGIN LEVEL: 0 DIFFERENT FILL-ORIGIN LEVEL: 0
STLB AVERAGE MISS LATENCY: 75.6709 cycles
STLB RQ	ACCESS:    1247306	FORWARD:          0	MERGED:       2750	TO_CACHE:    1244556

STLB Hit, L1D data hit: 0
STLB Hit, L2C data hit: 0
STLB Hit, LLC data hit: 0
STLB Hit, LLC data miss: 0
STLB STLB hints to L2: 0
L1D TOTAL     ACCESS:   13328537  HIT:   12886993  MISS:     441544  HIT %:    96.6872  MISS %:    3.31277   MPKI: 8.83088
L1D LOAD      ACCESS:    7074711  HIT:    6698229  MISS:     376482  HIT %:    94.6785  MISS %:    5.32152   MPKI: 7.52964
L1D RFO       ACCESS:    6247504  HIT:    6185302  MISS:      62202  HIT %:    99.0044  MISS %:    0.99563   MPKI: 1.24404
L1D PREFETCH  ACCESS:       6322  HIT:       3462  MISS:       2860  HIT %:    54.7612  MISS %:    45.2388   MPKI: 0.0572
L1Dprefetch_cycle_count: 4366 prefetches_per_prefetch_cycle: 3.17201
L1D PREFETCH  REQUESTED:      13849  ISSUED:      13849  USEFUL:       1690  USELESS:       1171
L1D USEFUL LOAD PREFETCHES:       1690 PREFETCH ISSUED TO LOWER LEVEL:       3330  ACCURACY: 50.7508
L1D TIMELY PREFETCHES:       1690 LATE PREFETCHES: 467 DROPPED PREFETCHES: 0
L1D PREFETCHES SAME FILL-ORIGIN LEVEL: 3330 DIFFERENT FILL-ORIGIN LEVEL: 0
L1D AVERAGE MISS LATENCY: 42207.6 cycles
L1D RQ	ACCESS:   10938444	FORWARD:          0	MERGED:    3695617	TO_CACHE:    7090873
L1D WQ	ACCESS:    6427456	FORWARD:     151957	MERGED:      95140	TO_CACHE:    6332316
L1D PQ	ACCESS:       6926	FORWARD:          0	MERGED:          0	TO_CACHE:       6923

L1D UNIQUE REGIONS ACCESSED: 0
L1D REGIONS CONFLICTS: 0
L1D Cross Page Prefetch Requests: 0
L1D Same Page Prefetch Requests: 9425
L1D ROI Sum of L1D PQ occupancy: 91202
L1D PREFETCHES PUSHED FROM L2C: 0
L1I TOTAL     ACCESS:   16220949  HIT:   11490640  MISS:    4730309  HIT %:    70.8383  MISS %:    29.1617   MPKI: 94.6062
L1I LOAD      ACCESS:    9513833  HIT:    9498767  MISS:      15066  HIT %:    99.8416  MISS %:   0.158359   MPKI: 0.30132
L1I PREFETCH  ACCESS:    6707116  HIT:    1991873  MISS:    4715243  HIT %:    29.6979  MISS %:    70.3021   MPKI: 94.3049
L1Iprefetch_cycle_count: 0 prefetches_per_prefetch_cycle: inf
L1I PREFETCH  REQUESTED:    6932266  ISSUED:    6916705  USEFUL:    4103013  USELESS:     612237
L1I USEFUL LOAD PREFETCHES:    4103013 PREFETCH ISSUED TO LOWER LEVEL:    4718987  ACCURACY: 86.9469
L1I TIMELY PREFETCHES:    4103013 LATE PREFETCHES: 3747 DROPPED PREFETCHES: 158
L1I PREFETCHES SAME FILL-ORIGIN LEVEL: 4718987 DIFFERENT FILL-ORIGIN LEVEL: 0
L1I AVERAGE MISS LATENCY: 33573.2 cycles
L1I RQ	ACCESS:   14203528	FORWARD:          0	MERGED:    4688860	TO_CACHE:    9514668
L1I PQ	ACCESS:    6916705	FORWARD:          0	MERGED:     171651	TO_CACHE:    6745054

BTB TOTAL     ACCESS:    5373999  HIT:    4845470  MISS:     528529  HIT %:    90.1651  MISS %:    9.83493   MPKI: 10.5706
BTB BRANCH_DIRECT_JUMP	ACCESS:     541911  HIT:     528428  MISS:      13483
BTB BRANCH_INDIRECT	ACCESS:      59690  HIT:      59594  MISS:         96
BTB BRANCH_CONDITIONAL	ACCESS:    2296252  HIT:    2253029  MISS:      43223
BTB BRANCH_DIRECT_CALL	ACCESS:    1003585  HIT:     965030  MISS:      38555
BTB BRANCH_INDIRECT_CALL	ACCESS:     234499  HIT:     188656  MISS:      45843
BTB BRANCH_RETURN	ACCESS:    1238062  HIT:     850733  MISS:     387329
BTB BRANCH_OTHER ACCESS:          0  HIT:          0  MISS:          0

L2C TOTAL     ACCESS:    7134964  HIT:    6955637  MISS:     179327  HIT %:    97.4866  MISS %:    2.51336   MPKI: 3.58654
L2C LOAD      ACCESS:     387257  HIT:     261386  MISS:     125871  HIT %:    67.4968  MISS %:    32.5032   MPKI: 2.51742
L2C DATA LOAD MPKI: 2.50792
L2C INSTRUCTION LOAD MPKI: 0.0095
L2C RFO       ACCESS:      62201  HIT:      35863  MISS:      26338  HIT %:    57.6566  MISS %:    42.3434   MPKI: 0.52676
L2C PREFETCH  ACCESS:    6444112  HIT:    6428301  MISS:      15811  HIT %:    99.7546  MISS %:   0.245356   MPKI: 0.31622
L2C DATA PREFETCH MPKI: 0.19298
L2C INSTRUCTION PREFETCH MPKI: 0.12324
L2C WRITEBACK ACCESS:     233187  HIT:     227157  MISS:       6030  HIT %:    97.4141  MISS %:    2.58591   MPKI: 0.1206
L2C LOAD TRANSLATION ACCESS:       7874  HIT:       2734  MISS:       5140  HIT %:    34.7219  MISS %:    65.2781   MPKI: 0.1028
L2C TRANSLATION FROM L1D PREFETCHER ACCESS:        333  HIT:        196  MISS:        137  HIT %:    58.8589  MISS %:    41.1411   MPKI: 0.00274
L2Cprefetch_cycle_count: 4470241 prefetches_per_prefetch_cycle: 1.00002
L2C PREFETCH  REQUESTED:    4470344  ISSUED:    4470340  USEFUL:       2171  USELESS:      13654
L2C USEFUL LOAD PREFETCHES:       2171 PREFETCH ISSUED TO LOWER LEVEL:      15845  ACCURACY: 13.7015
L2C TIMELY PREFETCHES:       2171 LATE PREFETCHES: 34 DROPPED PREFETCHES: 0
L2C PREFETCHES SAME FILL-ORIGIN LEVEL: 7385 DIFFERENT FILL-ORIGIN LEVEL: 0
L2C AVERAGE MISS LATENCY: 49.8364 cycles
L2C RQ	ACCESS:     457743	FORWARD:          0	MERGED:          0	TO_CACHE:     457665
L2C WQ	ACCESS:     233187	FORWARD:         78	MERGED:          0	TO_CACHE:     233187
L2C PQ	ACCESS:    9192654	FORWARD:          0	MERGED:    2747729	TO_CACHE:    6444925

L2C Instructions Evicting Data 6009
L2C Translations Evicting Data 4843
L2C Data Evicting Data 151071
L2C Instructions Evicting Instructions 453
L2C Translations Evicting Instructions 169
L2C Data Evicting Instructions 5553
L2C Instructions Evicting Translations 175
L2C Translations Evicting Translations 265
L2C Data Evicting Translations 4759
L2C Dense regions hint from L2: 0
PSCL5 TOTAL     ACCESS:       5953  HIT:       5953  MISS:          0  HIT %:        100  MISS %:          0   MPKI: 0
PSCL5 LOAD TRANSLATION ACCESS:       5753  HIT:       5753  MISS:          0  HIT %:        100  MISS %:          0   MPKI: 0
PSCL5 TRANSLATION FROM L1D PREFETCHER ACCESS:        200  HIT:        200  MISS:          0  HIT %:        100  MISS %:          0   MPKI: 0
PSCL5prefetch_cycle_count: 0 prefetches_per_prefetch_cycle: -nan
PSCL5 PREFETCH  REQUESTED:          0  ISSUED:          0  USEFUL:          0  USELESS:          0
PSCL5 USEFUL LOAD PREFETCHES:          0 PREFETCH ISSUED TO LOWER LEVEL:          0  ACCURACY: -nan
PSCL5 TIMELY PREFETCHES:          0 LATE PREFETCHES: 0 DROPPED PREFETCHES: 0
PSCL5 PREFETCHES SAME FILL-ORIGIN LEVEL: 0 DIFFERENT FILL-ORIGIN LEVEL: 0

PSCL4 TOTAL     ACCESS:       5934  HIT:       5931  MISS:          3  HIT %:    99.9494  MISS %:  0.0505561   MPKI: 6e-05
PSCL4 LOAD TRANSLATION ACCESS:       5734  HIT:       5731  MISS:          3  HIT %:    99.9477  MISS %:  0.0523195   MPKI: 6e-05
PSCL4 TRANSLATION FROM L1D PREFETCHER ACCESS:        200  HIT:        200  MISS:          0  HIT %:        100  MISS %:          0   MPKI: 0
PSCL4prefetch_cycle_count: 0 prefetches_per_prefetch_cycle: -nan
PSCL4 PREFETCH  REQUESTED:          0  ISSUED:          0  USEFUL:          0  USELESS:          0
PSCL4 USEFUL LOAD PREFETCHES:          0 PREFETCH ISSUED TO LOWER LEVEL:          0  ACCURACY: -nan
PSCL4 TIMELY PREFETCHES:          0 LATE PREFETCHES: 0 DROPPED PREFETCHES: 0
PSCL4 PREFETCHES SAME FILL-ORIGIN LEVEL: 0 DIFFERENT FILL-ORIGIN LEVEL: 0

PSCL3 TOTAL     ACCESS:       5949  HIT:       5943  MISS:          6  HIT %:    99.8991  MISS %:   0.100857   MPKI: 0.00012
PSCL3 LOAD TRANSLATION ACCESS:       5749  HIT:       5743  MISS:          6  HIT %:    99.8956  MISS %:   0.104366   MPKI: 0.00012
PSCL3 TRANSLATION FROM L1D PREFETCHER ACCESS:        200  HIT:        200  MISS:          0  HIT %:        100  MISS %:          0   MPKI: 0
PSCL3prefetch_cycle_count: 0 prefetches_per_prefetch_cycle: -nan
PSCL3 PREFETCH  REQUESTED:          0  ISSUED:          0  USEFUL:          0  USELESS:          0
PSCL3 USEFUL LOAD PREFETCHES:          0 PREFETCH ISSUED TO LOWER LEVEL:          0  ACCURACY: -nan
PSCL3 TIMELY PREFETCHES:          0 LATE PREFETCHES: 0 DROPPED PREFETCHES: 0
PSCL3 PREFETCHES SAME FILL-ORIGIN LEVEL: 0 DIFFERENT FILL-ORIGIN LEVEL: 0

PSCL2 TOTAL     ACCESS:       5874  HIT:       3685  MISS:       2189  HIT %:    62.7341  MISS %:    37.2659   MPKI: 0.04378
PSCL2 LOAD TRANSLATION ACCESS:       5807  HIT:       3618  MISS:       2189  HIT %:    62.3041  MISS %:    37.6959   MPKI: 0.04378
PSCL2 TRANSLATION FROM L1D PREFETCHER ACCESS:         67  HIT:         67  MISS:          0  HIT %:        100  MISS %:          0   MPKI: 0
PSCL2prefetch_cycle_count: 0 prefetches_per_prefetch_cycle: -nan
PSCL2 PREFETCH  REQUESTED:          0  ISSUED:          0  USEFUL:          0  USELESS:          0
PSCL2 USEFUL LOAD PREFETCHES:          0 PREFETCH ISSUED TO LOWER LEVEL:          0  ACCURACY: -nan
PSCL2 TIMELY PREFETCHES:          0 LATE PREFETCHES: 0 DROPPED PREFETCHES: 0
PSCL2 PREFETCHES SAME FILL-ORIGIN LEVEL: 0 DIFFERENT FILL-ORIGIN LEVEL: 0

LLC TOTAL     ACCESS:     255556  HIT:     231760  MISS:      23796  HIT %:    90.6885  MISS %:    9.31146   MPKI: 0.47592
LLC LOAD      ACCESS:     125837  HIT:     111482  MISS:      14355  HIT %:    88.5924  MISS %:    11.4076   MPKI: 0.2871
LLC RFO       ACCESS:      26336  HIT:      20837  MISS:       5499  HIT %:    79.1198  MISS %:    20.8802   MPKI: 0.10998
LLC PREFETCH  ACCESS:      15845  HIT:      12250  MISS:       3595  HIT %:    77.3115  MISS %:    22.6885   MPKI: 0.0719
LLC WRITEBACK ACCESS:      82261  HIT:      82051  MISS:        210  HIT %:    99.7447  MISS %:   0.255285   MPKI: 0.0042
LLC LOAD TRANSLATION ACCESS:       5140  HIT:       5003  MISS:        137  HIT %:    97.3346  MISS %:    2.66537   MPKI: 0.00274
LLC TRANSLATION FROM L1D PREFETCHER ACCESS:        137  HIT:        137  MISS:          0  HIT %:        100  MISS %:          0   MPKI: 0
LLCprefetch_cycle_count: 0 prefetches_per_prefetch_cycle: -nan
LLC PREFETCH  REQUESTED:          0  ISSUED:          0  USEFUL:         35  USELESS:       1554
LLC USEFUL LOAD PREFETCHES:         35 PREFETCH ISSUED TO LOWER LEVEL:       3595  ACCURACY: 0.973574
LLC TIMELY PREFETCHES:         35 LATE PREFETCHES: 0 DROPPED PREFETCHES: 0
LLC PREFETCHES SAME FILL-ORIGIN LEVEL: 0 DIFFERENT FILL-ORIGIN LEVEL: 0
LLC AVERAGE MISS LATENCY: 156.969 cycles
LLC RQ	ACCESS:     157452	FORWARD:          0	MERGED:          0	TO_CACHE:     157450
LLC WQ	ACCESS:      82261	FORWARD:          2	MERGED:          0	TO_CACHE:      82261
LLC PQ	ACCESS:      15845	FORWARD:          0	MERGED:          0	TO_CACHE:      15845

LLC Dense regions hint to LLC: 0

RAW hits: 1611047
Loads Generated: 12549491
Loads sent to L1D: 10938444
Stores Generated: 6427447
Stores sent to L1D: 6427456
Major fault: 0 Minor fault: 5748
Allocated PAGES: 5748
I-Shadow cache 408 bytes
Touched + WorthPF tables 6144 bytes 
MMA filter 174 bytes 
FNL filter 272 bytes 
TOTAL PREFETCHER STORAGE SIZE: 25174 bytes
CPU 0 L1I next line prefetcher final stats

total_pref_operate_instances_l1: 285078
dynamic_config_counter_instances_1: 129702
dynamic_config_counter_instances_2: 6530
dynamic_config_counter_instances_3: 6055
dynamic_config_counter_instances_4: 0
dynamic_config_counter_instances_5: 142791
stream: 
stream:times selected: 6495
stream:pref_filled: 2011
stream:pref_useful: 343
stream:pref_late: 9
stream:misses: 10
stream:misses_by_poll: 0

CS: 
CS:times selected: 2043
CS:pref_filled: 1364
CS:pref_useful: 1322
CS:pref_late: 417
CS:misses: 489
CS:misses_by_poll: 0

CPLX: 
CPLX:times selected: 3045
CPLX:pref_filled: 451
CPLX:pref_useful: 45
CPLX:pref_late: 2
CPLX:misses: 8
CPLX:misses_by_poll: 0

NL_L1: 
NL:times selected: 808
NL:pref_filled: 165
NL:pref_useful: 23
NL:pref_late: 0
NL:misses: 2
NL:misses_by_poll: 0

total selections: 12391
total_filled: 2860
total_useful: 1690
total_late: 475
total_polluted: 0
total_misses_after_warmup: 16523
conflicts: 135085
Degree Incremented Times: 10
Degree Decremented Times: 197

L1 IP Table Write Accesses: 146232
L1 IP Table Read Accesses: 11147
L1 RST Write Accesses: 5417
L1 RST Read Accesses: 10834
L1 CSPT Write Accesses: 5417
L1 CSPT Read Accesses: 11919
L1 RR Filter Tag Write Accesses: 6926
L1 RR Filter Tag Read Accesses: 632646
L1 IP Table Tag Write Accesses: 285078
L1 IP Table Tag Read Accesses: 285078
L1 RST Tag Write Accesses: 0
L1 RST Tag Read Accesses: 48039
L1 RR Filter Write Accesses: 0
L1 RR Filter Read Accesses: 21274
test: 1592
total_pref_operate_instances_l2: 4541690
dynamic_config_counter_instances_l2_1: 4396878
dynamic_config_counter_instances_l2_2: 83694
dynamic_config_counter_instances_l2_3: 61118
dynamic_config_counter_instances_l2_4: 0
dynamic_config_counter_instances_l2_5: 0
L2 IP Table Read Accesses: 4544030
L2 IP Table Write Accesses: 9082341
L2 IP Table Tag Read Accesses: 4541690
L2 IP Table Tag Write Accesses: 4541690

DRAM Statistics
 CHANNEL 0
 RQ ROW_BUFFER_HIT:       5093  ROW_BUFFER_MISS:      18493
 DBUS_CONGESTED:          6
 WQ ROW_BUFFER_HIT:        699  ROW_BUFFER_MISS:       7674  FULL:          0

 AVG_CONGESTED_CYCLE: 5
 All warmup complete: 2
Channel 0 Bank busy for read cycles: 0
Channel 0 Bank busy for write cycles: 0
Channel 0
Rank 0
0banks busy for read cycles: 54012112
0banks busy for write cycles: 5730
1banks busy for read cycles: 1795014
1banks busy for write cycles: 898369
2banks busy for read cycles: 400982
2banks busy for write cycles: 169275
3banks busy for read cycles: 34646
3banks busy for write cycles: 24306
4banks busy for read cycles: 16387
4banks busy for write cycles: 16981
5banks busy for read cycles: 12060
5banks busy for write cycles: 9869
6banks busy for read cycles: 11695
6banks busy for write cycles: 3413
7banks busy for read cycles: 12361
7banks busy for write cycles: 3573
8banks busy for read cycles: 5863
8banks busy for write cycles: 1987

CPU 0 Branch Prediction Accuracy: 99.9279% MPKI: 0.12968 Average ROB Occupancy at Mispredict: 53.232
Branch types
NOT_BRANCH: 41006134 82.0123%
BRANCH_DIRECT_JUMP: 541911 1.08382%
BRANCH_INDIRECT: 59690 0.11938%
BRANCH_CONDITIONAL: 5915823 11.8316%
BRANCH_DIRECT_CALL: 1003585 2.00717%
BRANCH_INDIRECT_CALL: 234499 0.468998%
BRANCH_RETURN: 1238062 2.47612%
BRANCH_OTHER: 0 0%

DRAM PAGES: 1048576
Allocated PAGES: 5748
