
*** ChampSim Multicore Out-of-Order Simulator ***

Warmup Instructions: 50000000
Simulation Instructions: 50000000
Number of CPUs: 1
LLC sets: 2048
LLC ways: 16
Off-chip DRAM Size: 4096 MB Channels: 1 Width: 64-bit Data Rate: 6400 MT/s
CPU 0 runs ../IPC-traces//server_021.champsimtrace.xz
.xz
NUM_OF_IPS_IN_CRITICAL_IP_TRAINING: 64
NUM_OF_CRITICAL_IP_TRAINING_TABLE_WAYS: 2
NUM_OF_CRITICAL_IP_TRAINING_TABLE_SETS: 32
WOBBLY_CRITICAL_IP_CACHE_SETS: 32
WOBBLY_CRITICAL_IP_CACHE_WAYS: 4
BTB has LRU replacement policy
ITLB has LRU replacement policy
DTLB has LRU replacement policy
STLB has LRU replacement policy
CPU 0 L1I next line prefetcher
L1I has LRU replacement policy
IP Table Entries: 64
L1D has LRU replacement policy
IP_Table L2 entries: 64
Initialize SRRIP state for L2C
Initialize DRRIP state for LLC
Heartbeat CPU 0 instructions: 10000000 cycles: 3148988 heartbeat IPC: 3.17562 cumulative IPC: 3.17562 (Simulation time: 0 hr 3 min 51 sec) 
Heartbeat CPU 0 instructions: 20000000 cycles: 6290809 heartbeat IPC: 3.18287 cumulative IPC: 3.17924 (Simulation time: 0 hr 7 min 10 sec) 
Heartbeat CPU 0 instructions: 30000000 cycles: 9468931 heartbeat IPC: 3.14651 cumulative IPC: 3.16826 (Simulation time: 0 hr 9 min 48 sec) 
Heartbeat CPU 0 instructions: 40000002 cycles: 12602054 heartbeat IPC: 3.1917 cumulative IPC: 3.17409 (Simulation time: 0 hr 12 min 27 sec) 
Heartbeat CPU 0 instructions: 50000000 cycles: 15766406 heartbeat IPC: 3.1602 cumulative IPC: 3.1713 (Simulation time: 0 hr 14 min 51 sec) 

Warmup complete CPU 0 instructions: 50000004 cycles: 15766407 (Simulation time: 0 hr 14 min 51 sec) 

% increase in all ip prefetch 452.158
% increase in all ip prefetch 3.23038
Heartbeat CPU 0 instructions: 60000001 cycles: 33953445 heartbeat IPC: 0.549842 cumulative IPC: 0.549842 (Simulation time: 0 hr 17 min 56 sec) 
Heartbeat CPU 0 instructions: 70000000 cycles: 51303344 heartbeat IPC: 0.576372 cumulative IPC: 0.562795 (Simulation time: 0 hr 20 min 52 sec) 
Heartbeat CPU 0 instructions: 80000003 cycles: 68579517 heartbeat IPC: 0.578832 cumulative IPC: 0.568041 (Simulation time: 0 hr 23 min 48 sec) 
Heartbeat CPU 0 instructions: 90000000 cycles: 85905284 heartbeat IPC: 0.577175 cumulative IPC: 0.570297 (Simulation time: 0 hr 27 min 18 sec) 
Heartbeat CPU 0 instructions: 100000002 cycles: 103188106 heartbeat IPC: 0.578609 cumulative IPC: 0.57194 (Simulation time: 0 hr 31 min 30 sec) 
Finished CPU 0 instructions: 50000002 cycles: 87421700 cumulative IPC: 0.57194 (Simulation time: 0 hr 31 min 30 sec) 

ChampSim completed all CPUs

Region of Interest Statistics

CPU 0 cumulative IPC: 0.57194 instructions: 50000002 cycles: 87421700

CPU 0 Average Load ROB stall cycles: 8.36637e+06
CPU 0 Fraction of times ROB stalled by Loads: 13.9466
CPU 0 Percentage of Load stall cycles in Total stall cycles: 1.03099e+08
 Total stall cycles: 41792799
 Total load stall cycles: 43088140918482
CPU 0 NUM of IPS identified critical: 1
CPU 0 Num of Load IPs stalling ROB: 2149
Threshold modification factor: -1
Max PIST entries: 64
Min PIST entries: 0
Avg PIST entries: 32
Trouble in retire width: 0.855896
MaC = Marked as critical.
lt_50_percent_before_Mac: 1
gt_90_percent_before_Mac: 0
gt_75_percent_before_Mac: 0
gt_50_percent_before_Mac: 0
stall_proportion_bin_same_before_after: 0
stall_proportion_bin_lower_before_after: 0
stall_proportion_bin_upper_before_after: 0
average_stall_proportion_before: 0.457143
average_stall_proportion_after: 0.468751
Critical IP stalls, total frequency: 267491
Non-critical IP stalls, total frequency: 435021
Critical_IP_ROB_Stalls_Bucket_0: 5104
Non-critical_IP_ROB_Stalls_Bucket_0: 184654
Critical_IP_ROB_Stalls_Bucket_1: 23288
Non-critical_IP_ROB_Stalls_Bucket_1: 126978
Critical_IP_ROB_Stalls_Bucket_2: 42067
Non-critical_IP_ROB_Stalls_Bucket_2: 67469
Critical_IP_ROB_Stalls_Bucket_3: 38561
Non-critical_IP_ROB_Stalls_Bucket_3: 22707
Critical_IP_ROB_Stalls_Bucket_4: 36887
Non-critical_IP_ROB_Stalls_Bucket_4: 9656
Critical_IP_ROB_Stalls_Bucket_5: 37011
Non-critical_IP_ROB_Stalls_Bucket_5: 11064
Critical_IP_ROB_Stalls_Bucket_6: 84573
Non-critical_IP_ROB_Stalls_Bucket_6: 28255
0 => IPs accounting for >50 percent of stalls, 1 => 55, 2 => 60, 3 => 65 and so on till 90.
percent50: 50.0228 num IPs:17
percent55: 55.1475 num IPs:32
percent60: 60.178 num IPs:48
percent65: 65.0495 num IPs:65
percent70: 70.1901 num IPs:85
percent75: 75.1479 num IPs:107
percent80: 80.0731 num IPs:135
percent85: 85.0343 num IPs:177
percent90: 90.0089 num IPs:262
Critical_ROB_Stalls_Percent_0_Bucket_0: 40471
Non-critical_ROB_Stalls_Percent_0_Bucket_0: 149287
Critical_ROB_Stalls_Percent_0_Bucket_1: 47716
Non-critical_ROB_Stalls_Percent_0_Bucket_1: 102550
Critical_ROB_Stalls_Percent_0_Bucket_2: 51494
Non-critical_ROB_Stalls_Percent_0_Bucket_2: 58042
Critical_ROB_Stalls_Percent_0_Bucket_3: 40712
Non-critical_ROB_Stalls_Percent_0_Bucket_3: 20556
Critical_ROB_Stalls_Percent_0_Bucket_4: 38183
Non-critical_ROB_Stalls_Percent_0_Bucket_4: 8360
Critical_ROB_Stalls_Percent_0_Bucket_5: 41884
Non-critical_ROB_Stalls_Percent_0_Bucket_5: 6191
Critical_ROB_Stalls_Percent_0_Bucket_6: 90956
Non-critical_ROB_Stalls_Percent_0_Bucket_6: 21872
Critical_ROB_Stalls_Percent_1_Bucket_0: 50822
Non-critical_ROB_Stalls_Percent_1_Bucket_0: 138936
Critical_ROB_Stalls_Percent_1_Bucket_1: 57711
Non-critical_ROB_Stalls_Percent_1_Bucket_1: 92555
Critical_ROB_Stalls_Percent_1_Bucket_2: 59261
Non-critical_ROB_Stalls_Percent_1_Bucket_2: 50275
Critical_ROB_Stalls_Percent_1_Bucket_3: 44406
Non-critical_ROB_Stalls_Percent_1_Bucket_3: 16862
Critical_ROB_Stalls_Percent_1_Bucket_4: 38463
Non-critical_ROB_Stalls_Percent_1_Bucket_4: 8080
Critical_ROB_Stalls_Percent_1_Bucket_5: 42140
Non-critical_ROB_Stalls_Percent_1_Bucket_5: 5935
Critical_ROB_Stalls_Percent_1_Bucket_6: 94615
Non-critical_ROB_Stalls_Percent_1_Bucket_6: 18213
Critical_ROB_Stalls_Percent_2_Bucket_0: 66085
Non-critical_ROB_Stalls_Percent_2_Bucket_0: 123673
Critical_ROB_Stalls_Percent_2_Bucket_1: 73586
Non-critical_ROB_Stalls_Percent_2_Bucket_1: 76680
Critical_ROB_Stalls_Percent_2_Bucket_2: 62855
Non-critical_ROB_Stalls_Percent_2_Bucket_2: 46681
Critical_ROB_Stalls_Percent_2_Bucket_3: 44556
Non-critical_ROB_Stalls_Percent_2_Bucket_3: 16712
Critical_ROB_Stalls_Percent_2_Bucket_4: 38703
Non-critical_ROB_Stalls_Percent_2_Bucket_4: 7840
Critical_ROB_Stalls_Percent_2_Bucket_5: 42347
Non-critical_ROB_Stalls_Percent_2_Bucket_5: 5728
Critical_ROB_Stalls_Percent_2_Bucket_6: 94626
Non-critical_ROB_Stalls_Percent_2_Bucket_6: 18202
Critical_ROB_Stalls_Percent_3_Bucket_0: 76077
Non-critical_ROB_Stalls_Percent_3_Bucket_0: 113681
Critical_ROB_Stalls_Percent_3_Bucket_1: 82744
Non-critical_ROB_Stalls_Percent_3_Bucket_1: 67522
Critical_ROB_Stalls_Percent_3_Bucket_2: 71064
Non-critical_ROB_Stalls_Percent_3_Bucket_2: 38472
Critical_ROB_Stalls_Percent_3_Bucket_3: 45879
Non-critical_ROB_Stalls_Percent_3_Bucket_3: 15389
Critical_ROB_Stalls_Percent_3_Bucket_4: 40325
Non-critical_ROB_Stalls_Percent_3_Bucket_4: 6218
Critical_ROB_Stalls_Percent_3_Bucket_5: 42863
Non-critical_ROB_Stalls_Percent_3_Bucket_5: 5212
Critical_ROB_Stalls_Percent_3_Bucket_6: 98029
Non-critical_ROB_Stalls_Percent_3_Bucket_6: 14799
Critical_ROB_Stalls_Percent_4_Bucket_0: 95450
Non-critical_ROB_Stalls_Percent_4_Bucket_0: 94308
Critical_ROB_Stalls_Percent_4_Bucket_1: 89237
Non-critical_ROB_Stalls_Percent_4_Bucket_1: 61029
Critical_ROB_Stalls_Percent_4_Bucket_2: 77425
Non-critical_ROB_Stalls_Percent_4_Bucket_2: 32111
Critical_ROB_Stalls_Percent_4_Bucket_3: 47222
Non-critical_ROB_Stalls_Percent_4_Bucket_3: 14046
Critical_ROB_Stalls_Percent_4_Bucket_4: 40453
Non-critical_ROB_Stalls_Percent_4_Bucket_4: 6090
Critical_ROB_Stalls_Percent_4_Bucket_5: 43055
Non-critical_ROB_Stalls_Percent_4_Bucket_5: 5020
Critical_ROB_Stalls_Percent_4_Bucket_6: 100252
Non-critical_ROB_Stalls_Percent_4_Bucket_6: 12576
Critical_ROB_Stalls_Percent_5_Bucket_0: 114498
Non-critical_ROB_Stalls_Percent_5_Bucket_0: 75260
Critical_ROB_Stalls_Percent_5_Bucket_1: 96128
Non-critical_ROB_Stalls_Percent_5_Bucket_1: 54138
Critical_ROB_Stalls_Percent_5_Bucket_2: 81361
Non-critical_ROB_Stalls_Percent_5_Bucket_2: 28175
Critical_ROB_Stalls_Percent_5_Bucket_3: 47833
Non-critical_ROB_Stalls_Percent_5_Bucket_3: 13435
Critical_ROB_Stalls_Percent_5_Bucket_4: 40964
Non-critical_ROB_Stalls_Percent_5_Bucket_4: 5579
Critical_ROB_Stalls_Percent_5_Bucket_5: 44356
Non-critical_ROB_Stalls_Percent_5_Bucket_5: 3719
Critical_ROB_Stalls_Percent_5_Bucket_6: 102783
Non-critical_ROB_Stalls_Percent_5_Bucket_6: 10045
Critical_ROB_Stalls_Percent_6_Bucket_0: 131397
Non-critical_ROB_Stalls_Percent_6_Bucket_0: 58361
Critical_ROB_Stalls_Percent_6_Bucket_1: 104645
Non-critical_ROB_Stalls_Percent_6_Bucket_1: 45621
Critical_ROB_Stalls_Percent_6_Bucket_2: 85202
Non-critical_ROB_Stalls_Percent_6_Bucket_2: 24334
Critical_ROB_Stalls_Percent_6_Bucket_3: 50179
Non-critical_ROB_Stalls_Percent_6_Bucket_3: 11089
Critical_ROB_Stalls_Percent_6_Bucket_4: 42523
Non-critical_ROB_Stalls_Percent_6_Bucket_4: 4020
Critical_ROB_Stalls_Percent_6_Bucket_5: 44723
Non-critical_ROB_Stalls_Percent_6_Bucket_5: 3352
Critical_ROB_Stalls_Percent_6_Bucket_6: 103854
Non-critical_ROB_Stalls_Percent_6_Bucket_6: 8974
Critical_ROB_Stalls_Percent_7_Bucket_0: 147398
Non-critical_ROB_Stalls_Percent_7_Bucket_0: 42360
Critical_ROB_Stalls_Percent_7_Bucket_1: 112810
Non-critical_ROB_Stalls_Percent_7_Bucket_1: 37456
Critical_ROB_Stalls_Percent_7_Bucket_2: 90662
Non-critical_ROB_Stalls_Percent_7_Bucket_2: 18874
Critical_ROB_Stalls_Percent_7_Bucket_3: 52431
Non-critical_ROB_Stalls_Percent_7_Bucket_3: 8837
Critical_ROB_Stalls_Percent_7_Bucket_4: 43378
Non-critical_ROB_Stalls_Percent_7_Bucket_4: 3165
Critical_ROB_Stalls_Percent_7_Bucket_5: 44969
Non-critical_ROB_Stalls_Percent_7_Bucket_5: 3106
Critical_ROB_Stalls_Percent_7_Bucket_6: 105728
Non-critical_ROB_Stalls_Percent_7_Bucket_6: 7100
Critical_ROB_Stalls_Percent_8_Bucket_0: 160731
Non-critical_ROB_Stalls_Percent_8_Bucket_0: 29027
Critical_ROB_Stalls_Percent_8_Bucket_1: 123601
Non-critical_ROB_Stalls_Percent_8_Bucket_1: 26665
Critical_ROB_Stalls_Percent_8_Bucket_2: 95216
Non-critical_ROB_Stalls_Percent_8_Bucket_2: 14320
Critical_ROB_Stalls_Percent_8_Bucket_3: 55382
Non-critical_ROB_Stalls_Percent_8_Bucket_3: 5886
Critical_ROB_Stalls_Percent_8_Bucket_4: 44131
Non-critical_ROB_Stalls_Percent_8_Bucket_4: 2412
Critical_ROB_Stalls_Percent_8_Bucket_5: 45681
Non-critical_ROB_Stalls_Percent_8_Bucket_5: 2394
Critical_ROB_Stalls_Percent_8_Bucket_6: 107581
Non-critical_ROB_Stalls_Percent_8_Bucket_6: 5247
Average ROB occupancy Load Stall Begin: 136.162
Average ROB occupancy Load Stall End: 143.204
Min ROB occupancy Load Stall Begin: 1
Max ROB occupancy Load Stall Begin: 351
Min ROB occupancy Load Stall End: 1
Max ROB occupancy Load Stall End: 352
Average ROB occupancy Critical Load Stall Begin: 224.495
Average ROB occupancy Critical Load Stall End: 228.657
Min ROB occupancy Critical Load Stall Begin: 15
Max ROB occupancy Critical Load Stall Begin: 351
Min ROB occupancy Critical Load Stall End: 15
Max ROB occupancy Critical Load Stall End: 352
 ROB Load Stall Begin Bucket Count 0: 227876
 ROB Load Stall End Bucket Count 0: 189758
 ROB Critical Load Stall Begin Bucket Count 0: 7452
 ROB Critical Load Stall End Bucket Count 0: 5089
 ROB Load Stall Begin Bucket Count 1: 137634
 ROB Load Stall End Bucket Count 1: 150266
 ROB Critical Load Stall Begin Bucket Count 1: 24041
 ROB Critical Load Stall End Bucket Count 1: 23251
 ROB Load Stall Begin Bucket Count 2: 97840
 ROB Load Stall End Bucket Count 2: 109536
 ROB Critical Load Stall Begin Bucket Count 2: 42461
 ROB Critical Load Stall End Bucket Count 2: 42026
 ROB Load Stall Begin Bucket Count 3: 55738
 ROB Load Stall End Bucket Count 3: 61268
 ROB Critical Load Stall Begin Bucket Count 3: 38175
 ROB Critical Load Stall End Bucket Count 3: 38516
 ROB Load Stall Begin Bucket Count 4: 44874
 ROB Load Stall End Bucket Count 4: 46543
 ROB Critical Load Stall Begin Bucket Count 4: 37188
 ROB Critical Load Stall End Bucket Count 4: 36846
 ROB Load Stall Begin Bucket Count 5: 47817
 ROB Load Stall End Bucket Count 5: 48075
 ROB Critical Load Stall Begin Bucket Count 5: 36354
 ROB Critical Load Stall End Bucket Count 5: 36975
 ROB Load Stall Begin Bucket Count 6: 106495
 ROB Load Stall End Bucket Count 6: 112828
 ROB Critical Load Stall Begin Bucket Count 6: 81548
 ROB Critical Load Stall End Bucket Count 6: 84516
PIST Tag Read Accesses: 346496
PIST Read Accesses: 173248
PIST Tag Write Accesses: 346496
PIST Write Accesses: 173248
Criticality detector called times: 253989
Max global_stall_cycles_count: 490008
Threshold Modified: 1 times, factor: -1
ITLB TOTAL     ACCESS:   10314286  HIT:    9833409  MISS:     480877  HIT %:    95.3378  MISS %:    4.66224   MPKI: 9.61754
ITLB LOAD TRANSLATION ACCESS:    8391806  HIT:    8381314  MISS:      10492  HIT %:     99.875  MISS %:   0.125027   MPKI: 0.20984
ITLB TRANSLATION FROM L1D PREFETCHER ACCESS:    1922480  HIT:    1452095  MISS:     470385  HIT %:    75.5324  MISS %:    24.4676   MPKI: 9.4077
ITLB PREFETCH  REQUESTED:          0  ISSUED:          0  USEFUL:     425144  USELESS:      45243
ITLB USEFUL LOAD PREFETCHES:     425144 PREFETCH ISSUED TO LOWER LEVEL:          0  ACCURACY: inf
ITLB TIMELY PREFETCHES:     425144 LATE PREFETCHES: 162 DROPPED PREFETCHES: 0
ITLB PREFETCHES SAME FILL-ORIGIN LEVEL: 0 DIFFERENT FILL-ORIGIN LEVEL: 0
ITLB AVERAGE MISS LATENCY: 19677.4 cycles
ITLB RQ	ACCESS:   14817437	FORWARD:          0	MERGED:    4450142	TO_CACHE:   10367295

DTLB TOTAL     ACCESS:   10913504  HIT:   10509660  MISS:     403844  HIT %:    96.2996  MISS %:    3.70041   MPKI: 8.07688
DTLB LOAD TRANSLATION ACCESS:   10913504  HIT:   10509660  MISS:     403844  HIT %:    96.2996  MISS %:    3.70041   MPKI: 8.07688
DTLB PREFETCH  REQUESTED:          0  ISSUED:          0  USEFUL:          0  USELESS:          0
DTLB USEFUL LOAD PREFETCHES:          0 PREFETCH ISSUED TO LOWER LEVEL:          0  ACCURACY: -nan
DTLB TIMELY PREFETCHES:          0 LATE PREFETCHES: 0 DROPPED PREFETCHES: 0
DTLB PREFETCHES SAME FILL-ORIGIN LEVEL: 0 DIFFERENT FILL-ORIGIN LEVEL: 0
DTLB AVERAGE MISS LATENCY: 16.6051 cycles
DTLB RQ	ACCESS:   16226853	FORWARD:          0	MERGED:    5228453	TO_CACHE:   10998400

STLB TOTAL     ACCESS:    1489054  HIT:    1468781  MISS:      20273  HIT %:    98.6385  MISS %:    1.36147   MPKI: 0.40546
STLB LOAD TRANSLATION ACCESS:     414174  HIT:     394280  MISS:      19894  HIT %:    95.1967  MISS %:     4.8033   MPKI: 0.39788
STLB TRANSLATION FROM L1D PREFETCHER ACCESS:    1074880  HIT:    1074501  MISS:        379  HIT %:    99.9647  MISS %:  0.0352597   MPKI: 0.00758
STLB PREFETCH  REQUESTED:          0  ISSUED:          0  USEFUL:        183  USELESS:        183
STLB USEFUL LOAD PREFETCHES:        183 PREFETCH ISSUED TO LOWER LEVEL:          0  ACCURACY: inf
STLB TIMELY PREFETCHES:        183 LATE PREFETCHES: 0 DROPPED PREFETCHES: 0
STLB PREFETCHES SAME FILL-ORIGIN LEVEL: 0 DIFFERENT FILL-ORIGIN LEVEL: 0
STLB AVERAGE MISS LATENCY: 158.487 cycles
STLB RQ	ACCESS:    1813035	FORWARD:          0	MERGED:     323981	TO_CACHE:    1489054

STLB Hit, L1D data hit: 0
STLB Hit, L2C data hit: 0
STLB Hit, LLC data hit: 0
STLB Hit, LLC data miss: 0
STLB STLB hints to L2: 0
L1D TOTAL     ACCESS:   14566604  HIT:   12556039  MISS:    2010565  HIT %:    86.1974  MISS %:    13.8026   MPKI: 40.2113
L1D LOAD      ACCESS:    7422939  HIT:    6903013  MISS:     519926  HIT %:    92.9957  MISS %:    7.00431   MPKI: 10.3985
L1D RFO       ACCESS:    6241606  HIT:    5251340  MISS:     990266  HIT %:    84.1344  MISS %:    15.8656   MPKI: 19.8053
L1D PREFETCH  ACCESS:     902059  HIT:     401686  MISS:     500373  HIT %:    44.5299  MISS %:    55.4701   MPKI: 10.0075
L1D PREFETCH  REQUESTED:    1894876  ISSUED:    1856653  USEFUL:     323627  USELESS:     176730
L1D USEFUL LOAD PREFETCHES:     323627 PREFETCH ISSUED TO LOWER LEVEL:     514681  ACCURACY: 62.8791
L1D TIMELY PREFETCHES:     323627 LATE PREFETCHES: 14178 DROPPED PREFETCHES: 0
L1D PREFETCHES SAME FILL-ORIGIN LEVEL: 514681 DIFFERENT FILL-ORIGIN LEVEL: 0
L1D AVERAGE MISS LATENCY: 386578 cycles
L1D RQ	ACCESS:   11104088	FORWARD:          0	MERGED:    3524540	TO_CACHE:    7455205
L1D WQ	ACCESS:    8864293	FORWARD:     124368	MERGED:      92645	TO_CACHE:    8771648
L1D PQ	ACCESS:     928339	FORWARD:          0	MERGED:          0	TO_CACHE:     928314

L1D UNIQUE REGIONS ACCESSED: 0
L1D REGIONS CONFLICTS: 0
L1D Cross Page Prefetch Requests: 0
L1D Same Page Prefetch Requests: 1857656
L1D ROI Sum of L1D PQ occupancy: 16023820
L1D PREFETCHES PUSHED FROM L2C: 0
L1I TOTAL     ACCESS:   14745510  HIT:   11585508  MISS:    3160002  HIT %:    78.5697  MISS %:    21.4303   MPKI: 63.2
L1I LOAD      ACCESS:    9796357  HIT:    9777003  MISS:      19354  HIT %:    99.8024  MISS %:   0.197563   MPKI: 0.38708
L1I PREFETCH  ACCESS:    4949153  HIT:    1808505  MISS:    3140648  HIT %:    36.5417  MISS %:    63.4583   MPKI: 62.813
L1I PREFETCH  REQUESTED:    5227825  ISSUED:    5224238  USEFUL:    2643599  USELESS:     497062
L1I USEFUL LOAD PREFETCHES:    2643599 PREFETCH ISSUED TO LOWER LEVEL:    3146973  ACCURACY: 84.0045
L1I TIMELY PREFETCHES:    2643599 LATE PREFETCHES: 6093 DROPPED PREFETCHES: 0
L1I PREFETCHES SAME FILL-ORIGIN LEVEL: 3146973 DIFFERENT FILL-ORIGIN LEVEL: 0
L1I AVERAGE MISS LATENCY: 120850 cycles
L1I RQ	ACCESS:   14085089	FORWARD:          0	MERGED:    4284925	TO_CACHE:    9800164
L1I PQ	ACCESS:    5224238	FORWARD:          0	MERGED:     206965	TO_CACHE:    5017273

BTB TOTAL     ACCESS:    5300075  HIT:    5041527  MISS:     258548  HIT %:    95.1218  MISS %:     4.8782   MPKI: 5.17096
BTB BRANCH_DIRECT_JUMP	ACCESS:     445212  HIT:     443383  MISS:       1829
BTB BRANCH_INDIRECT	ACCESS:      50481  HIT:      50386  MISS:         95
BTB BRANCH_CONDITIONAL	ACCESS:    2966952  HIT:    2961198  MISS:       5754
BTB BRANCH_DIRECT_CALL	ACCESS:     758223  HIT:     754416  MISS:       3807
BTB BRANCH_INDIRECT_CALL	ACCESS:     160492  HIT:     130806  MISS:      29686
BTB BRANCH_RETURN	ACCESS:     918715  HIT:     701338  MISS:     217377
BTB BRANCH_OTHER ACCESS:          0  HIT:          0  MISS:          0

L2C TOTAL     ACCESS:    8083116  HIT:    5990277  MISS:    2092839  HIT %:    74.1085  MISS %:    25.8915   MPKI: 41.8568
L2C LOAD      ACCESS:     518982  HIT:     249234  MISS:     269748  HIT %:    48.0236  MISS %:    51.9764   MPKI: 5.39496
L2C DATA LOAD MPKI: 5.3308
L2C INSTRUCTION LOAD MPKI: 0.06416
L2C RFO       ACCESS:     990256  HIT:      38167  MISS:     952089  HIT %:    3.85426  MISS %:    96.1457   MPKI: 19.0418
L2C PREFETCH  ACCESS:    5382020  HIT:    4562887  MISS:     819133  HIT %:    84.7802  MISS %:    15.2198   MPKI: 16.3827
L2C DATA PREFETCH MPKI: 13.2234
L2C INSTRUCTION PREFETCH MPKI: 3.15924
L2C WRITEBACK ACCESS:    1170078  HIT:    1127462  MISS:      42616  HIT %:    96.3578  MISS %:    3.64215   MPKI: 0.85232
L2C LOAD TRANSLATION ACCESS:      21242  HIT:      12410  MISS:       8832  HIT %:     58.422  MISS %:     41.578   MPKI: 0.17664
L2C TRANSLATION FROM L1D PREFETCHER ACCESS:        538  HIT:        117  MISS:        421  HIT %:    21.7472  MISS %:    78.2528   MPKI: 0.00842
L2C PREFETCH  REQUESTED:    3529197  ISSUED:    3528723  USEFUL:      84377  USELESS:     735193
L2C USEFUL LOAD PREFETCHES:      84377 PREFETCH ISSUED TO LOWER LEVEL:     827726  ACCURACY: 10.1938
L2C TIMELY PREFETCHES:      84377 LATE PREFETCHES: 8593 DROPPED PREFETCHES: 0
L2C PREFETCHES SAME FILL-ORIGIN LEVEL: 283291 DIFFERENT FILL-ORIGIN LEVEL: 0
L2C AVERAGE MISS LATENCY: 151.152 cycles
L2C RQ	ACCESS:    1531049	FORWARD:          0	MERGED:          0	TO_CACHE:    1531018
L2C WQ	ACCESS:    1170078	FORWARD:         41	MERGED:          0	TO_CACHE:    1170078
L2C PQ	ACCESS:    7190022	FORWARD:          0	MERGED:    1765831	TO_CACHE:    5424181

L2C Instructions Evicting Data 149264
L2C Translations Evicting Data 8383
L2C Data Evicting Data 1725313
L2C Instructions Evicting Instructions 11140
L2C Translations Evicting Instructions 842
L2C Data Evicting Instructions 146183
L2C Instructions Evicting Translations 766
L2C Translations Evicting Translations 28
L2C Data Evicting Translations 8304
L2C Dense regions hint from L2: 0
PSCL5 TOTAL     ACCESS:      20273  HIT:      20273  MISS:          0  HIT %:        100  MISS %:          0   MPKI: 0
PSCL5 LOAD TRANSLATION ACCESS:      19894  HIT:      19894  MISS:          0  HIT %:        100  MISS %:          0   MPKI: 0
PSCL5 TRANSLATION FROM L1D PREFETCHER ACCESS:        379  HIT:        379  MISS:          0  HIT %:        100  MISS %:          0   MPKI: 0
PSCL5 PREFETCH  REQUESTED:          0  ISSUED:          0  USEFUL:          0  USELESS:          0
PSCL5 USEFUL LOAD PREFETCHES:          0 PREFETCH ISSUED TO LOWER LEVEL:          0  ACCURACY: -nan
PSCL5 TIMELY PREFETCHES:          0 LATE PREFETCHES: 0 DROPPED PREFETCHES: 0
PSCL5 PREFETCHES SAME FILL-ORIGIN LEVEL: 0 DIFFERENT FILL-ORIGIN LEVEL: 0

PSCL4 TOTAL     ACCESS:      19518  HIT:      19475  MISS:         43  HIT %:    99.7797  MISS %:   0.220309   MPKI: 0.00086
PSCL4 LOAD TRANSLATION ACCESS:      19151  HIT:      19108  MISS:         43  HIT %:    99.7755  MISS %:   0.224531   MPKI: 0.00086
PSCL4 TRANSLATION FROM L1D PREFETCHER ACCESS:        367  HIT:        367  MISS:          0  HIT %:        100  MISS %:          0   MPKI: 0
PSCL4 PREFETCH  REQUESTED:          0  ISSUED:          0  USEFUL:          0  USELESS:          0
PSCL4 USEFUL LOAD PREFETCHES:          0 PREFETCH ISSUED TO LOWER LEVEL:          0  ACCURACY: -nan
PSCL4 TIMELY PREFETCHES:          0 LATE PREFETCHES: 0 DROPPED PREFETCHES: 0
PSCL4 PREFETCHES SAME FILL-ORIGIN LEVEL: 0 DIFFERENT FILL-ORIGIN LEVEL: 0

PSCL3 TOTAL     ACCESS:      19879  HIT:      19836  MISS:         43  HIT %:    99.7837  MISS %:   0.216309   MPKI: 0.00086
PSCL3 LOAD TRANSLATION ACCESS:      19512  HIT:      19469  MISS:         43  HIT %:    99.7796  MISS %:   0.220377   MPKI: 0.00086
PSCL3 TRANSLATION FROM L1D PREFETCHER ACCESS:        367  HIT:        367  MISS:          0  HIT %:        100  MISS %:          0   MPKI: 0
PSCL3 PREFETCH  REQUESTED:          0  ISSUED:          0  USEFUL:          0  USELESS:          0
PSCL3 USEFUL LOAD PREFETCHES:          0 PREFETCH ISSUED TO LOWER LEVEL:          0  ACCURACY: -nan
PSCL3 TIMELY PREFETCHES:          0 LATE PREFETCHES: 0 DROPPED PREFETCHES: 0
PSCL3 PREFETCHES SAME FILL-ORIGIN LEVEL: 0 DIFFERENT FILL-ORIGIN LEVEL: 0

PSCL2 TOTAL     ACCESS:      20273  HIT:      18828  MISS:       1445  HIT %:    92.8723  MISS %:    7.12771   MPKI: 0.0289
PSCL2 LOAD TRANSLATION ACCESS:      20031  HIT:      18586  MISS:       1445  HIT %:    92.7862  MISS %:    7.21382   MPKI: 0.0289
PSCL2 TRANSLATION FROM L1D PREFETCHER ACCESS:        242  HIT:        242  MISS:          0  HIT %:        100  MISS %:          0   MPKI: 0
PSCL2 PREFETCH  REQUESTED:          0  ISSUED:          0  USEFUL:          0  USELESS:          0
PSCL2 USEFUL LOAD PREFETCHES:          0 PREFETCH ISSUED TO LOWER LEVEL:          0  ACCURACY: -nan
PSCL2 TIMELY PREFETCHES:          0 LATE PREFETCHES: 0 DROPPED PREFETCHES: 0
PSCL2 PREFETCHES SAME FILL-ORIGIN LEVEL: 0 DIFFERENT FILL-ORIGIN LEVEL: 0

LLC TOTAL     ACCESS:    3153429  HIT:    1463177  MISS:    1690252  HIT %:    46.3996  MISS %:    53.6004   MPKI: 33.805
LLC LOAD      ACCESS:     262869  HIT:     222994  MISS:      39875  HIT %:    84.8308  MISS %:    15.1692   MPKI: 0.7975
LLC RFO       ACCESS:     950374  HIT:     230835  MISS:     719539  HIT %:    24.2889  MISS %:    75.7111   MPKI: 14.3908
LLC PREFETCH  ACCESS:     827726  HIT:     462991  MISS:     364735  HIT %:    55.9353  MISS %:    44.0647   MPKI: 7.2947
LLC WRITEBACK ACCESS:    1103207  HIT:     543267  MISS:     559940  HIT %:    49.2443  MISS %:    50.7557   MPKI: 11.1988
LLC LOAD TRANSLATION ACCESS:       8832  HIT:       2925  MISS:       5907  HIT %:    33.1182  MISS %:    66.8818   MPKI: 0.11814
LLC TRANSLATION FROM L1D PREFETCHER ACCESS:        421  HIT:        165  MISS:        256  HIT %:    39.1924  MISS %:    60.8076   MPKI: 0.00512
LLC PREFETCH  REQUESTED:          0  ISSUED:          0  USEFUL:       1815  USELESS:     368419
LLC USEFUL LOAD PREFETCHES:       1815 PREFETCH ISSUED TO LOWER LEVEL:     364735  ACCURACY: 0.497622
LLC TIMELY PREFETCHES:       1815 LATE PREFETCHES: 0 DROPPED PREFETCHES: 0
LLC PREFETCHES SAME FILL-ORIGIN LEVEL: 0 DIFFERENT FILL-ORIGIN LEVEL: 0
LLC AVERAGE MISS LATENCY: 149.413 cycles
LLC RQ	ACCESS:    1222497	FORWARD:          0	MERGED:          0	TO_CACHE:    1222496
LLC WQ	ACCESS:    1103207	FORWARD:          1	MERGED:          0	TO_CACHE:    1103207
LLC PQ	ACCESS:     827726	FORWARD:          0	MERGED:          0	TO_CACHE:     827726

LLC Dense regions hint to LLC: 0

RAW hits: 1361524
Loads Generated: 12465612
Loads sent to L1D: 11104088
Stores Generated: 8864282
Stores sent to L1D: 8864293
Major fault: 0 Minor fault: 22424
Allocated PAGES: 22424
I-Shadow cache 408 bytes
Touched + WorthPF tables 6144 bytes 
MMA filter 174 bytes 
FNL filter 272 bytes 
TOTAL PREFETCHER STORAGE SIZE: 25174 bytes
CPU 0 L1I next line prefetcher final stats

stream: 
stream:times selected: 3701343
stream:pref_filled: 980283
stream:pref_useful: 644615
stream:pref_late: 14173
stream:misses: 12539
stream:misses_by_poll: 0

CS: 
CS:times selected: 3429709
CS:pref_filled: 7062
CS:pref_useful: 6721
CS:pref_late: 209
CS:misses: 17340
CS:misses_by_poll: 1

CPLX: 
CPLX:times selected: 267504
CPLX:pref_filled: 14423
CPLX:pref_useful: 1586
CPLX:pref_late: 512
CPLX:misses: 37465
CPLX:misses_by_poll: 5

NL_L1: 
NL:times selected: 827
NL:pref_filled: 199
NL:pref_useful: 13
NL:pref_late: 3
NL:misses: 177
NL:misses_by_poll: 0

total selections: 7399383
total_filled: 500373
total_useful: 323627
total_late: 17783
total_polluted: 6
total_misses_after_warmup: 552193
conflicts: 2602819
Degree Incremented Times: 61607
Degree Decremented Times: 131583

L1 IP Table Write Accesses: 4714467
L1 IP Table Read Accesses: 2111648
L1 RST Write Accesses: 1845011
L1 RST Read Accesses: 3690022
L1 CSPT Write Accesses: 1845011
L1 CSPT Read Accesses: 1972936
L1 RR Filter Tag Write Accesses: 966562
L1 RR Filter Tag Read Accesses: 455414707
L1 IP Table Tag Write Accesses: 7455206
L1 IP Table Tag Read Accesses: 7455206
L1 RST Tag Write Accesses: 0
L1 RST Tag Read Accesses: 16704752
L1 RR Filter Write Accesses: 0
L1 RR Filter Read Accesses: 15691637
test: 134132
L2 IP Table Read Accesses: 4659497
L2 IP Table Write Accesses: 8138093
L2 IP Table Tag Read Accesses: 4118781
L2 IP Table Tag Write Accesses: 4118781

DRAM Statistics
 CHANNEL 0
 RQ ROW_BUFFER_HIT:     490322  ROW_BUFFER_MISS:     639869
 DBUS_CONGESTED:        618
 WQ ROW_BUFFER_HIT:     154408  ROW_BUFFER_MISS:     595953  FULL:      20874

 AVG_CONGESTED_CYCLE: 3
 All warmup complete: 2
Channel 0 Bank busy for read cycles: 0
Channel 0 Bank busy for write cycles: 0
Channel 0
Rank 0
0banks busy for read cycles: 23312610
0banks busy for write cycles: 44420
1banks busy for read cycles: 10241206
1banks busy for write cycles: 5837900
2banks busy for read cycles: 9823629
2banks busy for write cycles: 3244778
3banks busy for read cycles: 4669988
3banks busy for write cycles: 1984263
4banks busy for read cycles: 3860403
4banks busy for write cycles: 1400052
5banks busy for read cycles: 1476483
5banks busy for write cycles: 1185253
6banks busy for read cycles: 1197216
6banks busy for write cycles: 1106029
7banks busy for read cycles: 1711072
7banks busy for write cycles: 1767326
8banks busy for read cycles: 4610054
8banks busy for write cycles: 9949019

CPU 0 Branch Prediction Accuracy: 99.8303% MPKI: 0.27836 Average ROB Occupancy at Mispredict: 109.672
Branch types
NOT_BRANCH: 41798375 83.5967%
BRANCH_DIRECT_JUMP: 445212 0.890424%
BRANCH_INDIRECT: 50481 0.100962%
BRANCH_CONDITIONAL: 5868224 11.7364%
BRANCH_DIRECT_CALL: 758223 1.51645%
BRANCH_INDIRECT_CALL: 160492 0.320984%
BRANCH_RETURN: 918715 1.83743%
BRANCH_OTHER: 0 0%

DRAM PAGES: 1048576
Allocated PAGES: 22424
