
*** ChampSim Multicore Out-of-Order Simulator ***

Warmup Instructions: 50000000
Simulation Instructions: 50000000
Number of CPUs: 1
LLC sets: 2048
LLC ways: 16
Off-chip DRAM Size: 4096 MB Channels: 1 Width: 64-bit Data Rate: 6400 MT/s
CPU 0 runs ../IPC-traces//server_022.champsimtrace.xz
.xz
NUM_OF_IPS_IN_CRITICAL_IP_TRAINING: 64
NUM_OF_CRITICAL_IP_TRAINING_TABLE_WAYS: 2
NUM_OF_CRITICAL_IP_TRAINING_TABLE_SETS: 32
WOBBLY_CRITICAL_IP_CACHE_SETS: 32
WOBBLY_CRITICAL_IP_CACHE_WAYS: 4
BTB has LRU replacement policy
ITLB has LRU replacement policy
DTLB has LRU replacement policy
STLB has LRU replacement policy
CPU 0 L1I next line prefetcher
L1I has LRU replacement policy
IP Table Entries: 64
L1D has LRU replacement policy
Initialize SRRIP state for L2C
Initialize DRRIP state for LLC
Heartbeat CPU 0 instructions: 10000001 cycles: 3147446 heartbeat IPC: 3.17718 cumulative IPC: 3.17718 (Simulation time: 0 hr 3 min 23 sec) 
Heartbeat CPU 0 instructions: 20000000 cycles: 6305254 heartbeat IPC: 3.16675 cumulative IPC: 3.17196 (Simulation time: 0 hr 6 min 51 sec) 
Heartbeat CPU 0 instructions: 30000000 cycles: 9452750 heartbeat IPC: 3.17713 cumulative IPC: 3.17368 (Simulation time: 0 hr 10 min 24 sec) 
Heartbeat CPU 0 instructions: 40000003 cycles: 12611445 heartbeat IPC: 3.16587 cumulative IPC: 3.17172 (Simulation time: 0 hr 13 min 52 sec) 
Heartbeat CPU 0 instructions: 50000003 cycles: 15760425 heartbeat IPC: 3.17563 cumulative IPC: 3.1725 (Simulation time: 0 hr 17 min 9 sec) 

Warmup complete CPU 0 instructions: 50000003 cycles: 15760425 (Simulation time: 0 hr 17 min 9 sec) 

% increase in all ip prefetch 478.672
% increase in all ip prefetch 12.7738
% increase in all ip prefetch 18.8426
% increase in all ip prefetch 11.7638
% increase in all ip prefetch -3.01276
Heartbeat CPU 0 instructions: 60000000 cycles: 35524822 heartbeat IPC: 0.50596 cumulative IPC: 0.50596 (Simulation time: 0 hr 21 min 46 sec) 
Heartbeat CPU 0 instructions: 70000001 cycles: 55043677 heartbeat IPC: 0.512325 cumulative IPC: 0.509123 (Simulation time: 0 hr 26 min 20 sec) 
Heartbeat CPU 0 instructions: 80000000 cycles: 73316303 heartbeat IPC: 0.547267 cumulative IPC: 0.521233 (Simulation time: 0 hr 30 min 43 sec) 
Heartbeat CPU 0 instructions: 90000003 cycles: 91736745 heartbeat IPC: 0.542875 cumulative IPC: 0.52648 (Simulation time: 0 hr 37 min 53 sec) 
Heartbeat CPU 0 instructions: 100000000 cycles: 110047607 heartbeat IPC: 0.546124 cumulative IPC: 0.530295 (Simulation time: 0 hr 43 min 21 sec) 
Finished CPU 0 instructions: 50000001 cycles: 94287183 cumulative IPC: 0.530295 (Simulation time: 0 hr 43 min 21 sec) 

ChampSim completed all CPUs

Region of Interest Statistics

CPU 0 cumulative IPC: 0.530295 instructions: 50000001 cycles: 94287183

CPU 0 Average Load ROB stall cycles: 2.89274e+07
CPU 0 Fraction of times ROB stalled by Loads: 45.3392
CPU 0 Percentage of Load stall cycles in Total stall cycles: 2.69689e+08
Issued all: 51485781
Issued LT all: 46189452
rob_not_full_when_issued_lt_all: 16859147
Issued LT one: 40363198
rob_not_full_when_issued_lt_one: 12827351
 Total stall cycles: 76626280
 Total load stall cycles: 206652983624171
CPU 0 NUM of IPS identified critical: 0
CPU 0 Num of Load IPs stalling ROB: 4796
Threshold modification factor: -4
Max PIST entries: 64
Min PIST entries: 0
Avg PIST entries: 32
Trouble in retire width: 0.798703
MaC = Marked as critical.
lt_50_percent_before_Mac: 0
gt_90_percent_before_Mac: 0
gt_75_percent_before_Mac: 0
gt_50_percent_before_Mac: 0
stall_proportion_bin_same_before_after: 0
stall_proportion_bin_lower_before_after: 0
stall_proportion_bin_upper_before_after: 0
average_stall_proportion_before: -nan
average_stall_proportion_after: -nan
Critical IP stalls, total frequency: 0
Non-critical IP stalls, total frequency: 3238968
Total Freq all stalling IPs: 3238968
stat_90_percent_critical_ip_stalls_freq: 2915553
stat_90_percent_non_critical_ip_stalls_freq: 323415
Critical_IP_ROB_Stalls_Bucket_0: 0
Non-critical_IP_ROB_Stalls_Bucket_0: 506001
Critical_IP_ROB_Stalls_Bucket_1: 0
Non-critical_IP_ROB_Stalls_Bucket_1: 616627
Critical_IP_ROB_Stalls_Bucket_2: 0
Non-critical_IP_ROB_Stalls_Bucket_2: 423198
Critical_IP_ROB_Stalls_Bucket_3: 0
Non-critical_IP_ROB_Stalls_Bucket_3: 262089
Critical_IP_ROB_Stalls_Bucket_4: 0
Non-critical_IP_ROB_Stalls_Bucket_4: 168707
Critical_IP_ROB_Stalls_Bucket_5: 0
Non-critical_IP_ROB_Stalls_Bucket_5: 150627
Critical_IP_ROB_Stalls_Bucket_6: 0
Non-critical_IP_ROB_Stalls_Bucket_6: 1111719
0 => IPs accounting for >50 percent of stalls, 1 => 55, 2 => 60, 3 => 65 and so on till 90.
percent50: 50.2726 num IPs:  12
percent55: 55.0728 num IPs: 30
percent60: 60.0319 num IPs: 61
percent65: 65.013 num IPs: 107
percent70: 70.0158 num IPs: 174
percent75: 75.0585 num IPs: 242
percent80: 80.0384 num IPs: 311
percent85: 85.0466 num IPs: 388
percent90: 90.0151 num IPs: 486
Critical_ROB_Stalls_Percent_0_Bucket_0: 53628
Non-critical_ROB_Stalls_Percent_0_Bucket_0: 452373
Critical_ROB_Stalls_Percent_0_Bucket_1: 113800
Non-critical_ROB_Stalls_Percent_0_Bucket_1: 502827
Critical_ROB_Stalls_Percent_0_Bucket_2: 119434
Non-critical_ROB_Stalls_Percent_0_Bucket_2: 303764
Critical_ROB_Stalls_Percent_0_Bucket_3: 133752
Non-critical_ROB_Stalls_Percent_0_Bucket_3: 128337
Critical_ROB_Stalls_Percent_0_Bucket_4: 110939
Non-critical_ROB_Stalls_Percent_0_Bucket_4: 57768
Critical_ROB_Stalls_Percent_0_Bucket_5: 104213
Non-critical_ROB_Stalls_Percent_0_Bucket_5: 46414
Critical_ROB_Stalls_Percent_0_Bucket_6: 992549
Non-critical_ROB_Stalls_Percent_0_Bucket_6: 119170
Critical_ROB_Stalls_Percent_1_Bucket_0: 124267
Non-critical_ROB_Stalls_Percent_1_Bucket_0: 381734
Critical_ROB_Stalls_Percent_1_Bucket_1: 156431
Non-critical_ROB_Stalls_Percent_1_Bucket_1: 460196
Critical_ROB_Stalls_Percent_1_Bucket_2: 138620
Non-critical_ROB_Stalls_Percent_1_Bucket_2: 284578
Critical_ROB_Stalls_Percent_1_Bucket_3: 141377
Non-critical_ROB_Stalls_Percent_1_Bucket_3: 120712
Critical_ROB_Stalls_Percent_1_Bucket_4: 114658
Non-critical_ROB_Stalls_Percent_1_Bucket_4: 54049
Critical_ROB_Stalls_Percent_1_Bucket_5: 108712
Non-critical_ROB_Stalls_Percent_1_Bucket_5: 41915
Critical_ROB_Stalls_Percent_1_Bucket_6: 999727
Non-critical_ROB_Stalls_Percent_1_Bucket_6: 111992
Critical_ROB_Stalls_Percent_2_Bucket_0: 174872
Non-critical_ROB_Stalls_Percent_2_Bucket_0: 331129
Critical_ROB_Stalls_Percent_2_Bucket_1: 195036
Non-critical_ROB_Stalls_Percent_2_Bucket_1: 421591
Critical_ROB_Stalls_Percent_2_Bucket_2: 168559
Non-critical_ROB_Stalls_Percent_2_Bucket_2: 254639
Critical_ROB_Stalls_Percent_2_Bucket_3: 147101
Non-critical_ROB_Stalls_Percent_2_Bucket_3: 114988
Critical_ROB_Stalls_Percent_2_Bucket_4: 120422
Non-critical_ROB_Stalls_Percent_2_Bucket_4: 48285
Critical_ROB_Stalls_Percent_2_Bucket_5: 116013
Non-critical_ROB_Stalls_Percent_2_Bucket_5: 34614
Critical_ROB_Stalls_Percent_2_Bucket_6: 1022412
Non-critical_ROB_Stalls_Percent_2_Bucket_6: 89307
Critical_ROB_Stalls_Percent_3_Bucket_0: 217120
Non-critical_ROB_Stalls_Percent_3_Bucket_0: 288881
Critical_ROB_Stalls_Percent_3_Bucket_1: 237783
Non-critical_ROB_Stalls_Percent_3_Bucket_1: 378844
Critical_ROB_Stalls_Percent_3_Bucket_2: 201738
Non-critical_ROB_Stalls_Percent_3_Bucket_2: 221460
Critical_ROB_Stalls_Percent_3_Bucket_3: 157620
Non-critical_ROB_Stalls_Percent_3_Bucket_3: 104469
Critical_ROB_Stalls_Percent_3_Bucket_4: 125623
Non-critical_ROB_Stalls_Percent_3_Bucket_4: 43084
Critical_ROB_Stalls_Percent_3_Bucket_5: 121717
Non-critical_ROB_Stalls_Percent_3_Bucket_5: 28910
Critical_ROB_Stalls_Percent_3_Bucket_6: 1044149
Non-critical_ROB_Stalls_Percent_3_Bucket_6: 67570
Critical_ROB_Stalls_Percent_4_Bucket_0: 232711
Non-critical_ROB_Stalls_Percent_4_Bucket_0: 273290
Critical_ROB_Stalls_Percent_4_Bucket_1: 294536
Non-critical_ROB_Stalls_Percent_4_Bucket_1: 322091
Critical_ROB_Stalls_Percent_4_Bucket_2: 242257
Non-critical_ROB_Stalls_Percent_4_Bucket_2: 180941
Critical_ROB_Stalls_Percent_4_Bucket_3: 177393
Non-critical_ROB_Stalls_Percent_4_Bucket_3: 84696
Critical_ROB_Stalls_Percent_4_Bucket_4: 139430
Non-critical_ROB_Stalls_Percent_4_Bucket_4: 29277
Critical_ROB_Stalls_Percent_4_Bucket_5: 131738
Non-critical_ROB_Stalls_Percent_4_Bucket_5: 18889
Critical_ROB_Stalls_Percent_4_Bucket_6: 1049723
Non-critical_ROB_Stalls_Percent_4_Bucket_6: 61996
Critical_ROB_Stalls_Percent_5_Bucket_0: 263318
Non-critical_ROB_Stalls_Percent_5_Bucket_0: 242683
Critical_ROB_Stalls_Percent_5_Bucket_1: 355278
Non-critical_ROB_Stalls_Percent_5_Bucket_1: 261349
Critical_ROB_Stalls_Percent_5_Bucket_2: 281328
Non-critical_ROB_Stalls_Percent_5_Bucket_2: 141870
Critical_ROB_Stalls_Percent_5_Bucket_3: 200505
Non-critical_ROB_Stalls_Percent_5_Bucket_3: 61584
Critical_ROB_Stalls_Percent_5_Bucket_4: 146008
Non-critical_ROB_Stalls_Percent_5_Bucket_4: 22699
Critical_ROB_Stalls_Percent_5_Bucket_5: 132968
Non-critical_ROB_Stalls_Percent_5_Bucket_5: 17659
Critical_ROB_Stalls_Percent_5_Bucket_6: 1051713
Non-critical_ROB_Stalls_Percent_5_Bucket_6: 60006
Critical_ROB_Stalls_Percent_6_Bucket_0: 314856
Non-critical_ROB_Stalls_Percent_6_Bucket_0: 191145
Critical_ROB_Stalls_Percent_6_Bucket_1: 419855
Non-critical_ROB_Stalls_Percent_6_Bucket_1: 196772
Critical_ROB_Stalls_Percent_6_Bucket_2: 303679
Non-critical_ROB_Stalls_Percent_6_Bucket_2: 119519
Critical_ROB_Stalls_Percent_6_Bucket_3: 209156
Non-critical_ROB_Stalls_Percent_6_Bucket_3: 52933
Critical_ROB_Stalls_Percent_6_Bucket_4: 149223
Non-critical_ROB_Stalls_Percent_6_Bucket_4: 19484
Critical_ROB_Stalls_Percent_6_Bucket_5: 135649
Non-critical_ROB_Stalls_Percent_6_Bucket_5: 14978
Critical_ROB_Stalls_Percent_6_Bucket_6: 1059997
Non-critical_ROB_Stalls_Percent_6_Bucket_6: 51722
Critical_ROB_Stalls_Percent_7_Bucket_0: 352133
Non-critical_ROB_Stalls_Percent_7_Bucket_0: 153868
Critical_ROB_Stalls_Percent_7_Bucket_1: 464503
Non-critical_ROB_Stalls_Percent_7_Bucket_1: 152124
Critical_ROB_Stalls_Percent_7_Bucket_2: 350530
Non-critical_ROB_Stalls_Percent_7_Bucket_2: 72668
Critical_ROB_Stalls_Percent_7_Bucket_3: 225490
Non-critical_ROB_Stalls_Percent_7_Bucket_3: 36599
Critical_ROB_Stalls_Percent_7_Bucket_4: 155573
Non-critical_ROB_Stalls_Percent_7_Bucket_4: 13134
Critical_ROB_Stalls_Percent_7_Bucket_5: 138006
Non-critical_ROB_Stalls_Percent_7_Bucket_5: 12621
Critical_ROB_Stalls_Percent_7_Bucket_6: 1068395
Non-critical_ROB_Stalls_Percent_7_Bucket_6: 43324
Critical_ROB_Stalls_Percent_8_Bucket_0: 406573
Non-critical_ROB_Stalls_Percent_8_Bucket_0: 99428
Critical_ROB_Stalls_Percent_8_Bucket_1: 518581
Non-critical_ROB_Stalls_Percent_8_Bucket_1: 98046
Critical_ROB_Stalls_Percent_8_Bucket_2: 369957
Non-critical_ROB_Stalls_Percent_8_Bucket_2: 53241
Critical_ROB_Stalls_Percent_8_Bucket_3: 234292
Non-critical_ROB_Stalls_Percent_8_Bucket_3: 27797
Critical_ROB_Stalls_Percent_8_Bucket_4: 158108
Non-critical_ROB_Stalls_Percent_8_Bucket_4: 10599
Critical_ROB_Stalls_Percent_8_Bucket_5: 143198
Non-critical_ROB_Stalls_Percent_8_Bucket_5: 7429
Critical_ROB_Stalls_Percent_8_Bucket_6: 1084844
Non-critical_ROB_Stalls_Percent_8_Bucket_6: 26875
Average ROB occupancy Load Stall Begin: 184.693
Average ROB occupancy Load Stall End: 193.049
Min ROB occupancy Load Stall Begin: 1
Max ROB occupancy Load Stall Begin: 352
Min ROB occupancy Load Stall End: 1
Max ROB occupancy Load Stall End: 352
Average ROB occupancy Critical Load Stall Begin: -nan
Average ROB occupancy Critical Load Stall End: -nan
Min ROB occupancy Critical Load Stall Begin: 400
Max ROB occupancy Critical Load Stall Begin: 0
Min ROB occupancy Critical Load Stall End: 400
Max ROB occupancy Critical Load Stall End: 0
 ROB Load Stall Begin Bucket Count 0: 714088
 ROB Load Stall End Bucket Count 0: 506001
 ROB Critical Load Stall Begin Bucket Count 0: 0
 ROB Critical Load Stall End Bucket Count 0: 0
 ROB Load Stall Begin Bucket Count 1: 536826
 ROB Load Stall End Bucket Count 1: 616627
 ROB Critical Load Stall Begin Bucket Count 1: 0
 ROB Critical Load Stall End Bucket Count 1: 0
 ROB Load Stall Begin Bucket Count 2: 376010
 ROB Load Stall End Bucket Count 2: 423198
 ROB Critical Load Stall Begin Bucket Count 2: 0
 ROB Critical Load Stall End Bucket Count 2: 0
 ROB Load Stall Begin Bucket Count 3: 222117
 ROB Load Stall End Bucket Count 3: 262089
 ROB Critical Load Stall Begin Bucket Count 3: 0
 ROB Critical Load Stall End Bucket Count 3: 0
 ROB Load Stall Begin Bucket Count 4: 154663
 ROB Load Stall End Bucket Count 4: 168707
 ROB Critical Load Stall Begin Bucket Count 4: 0
 ROB Critical Load Stall End Bucket Count 4: 0
 ROB Load Stall Begin Bucket Count 5: 151945
 ROB Load Stall End Bucket Count 5: 150627
 ROB Critical Load Stall Begin Bucket Count 5: 0
 ROB Critical Load Stall End Bucket Count 5: 0
 ROB Load Stall Begin Bucket Count 6: 1083319
 ROB Load Stall End Bucket Count 6: 1111719
 ROB Critical Load Stall Begin Bucket Count 6: 0
 ROB Critical Load Stall End Bucket Count 6: 0
PIST Tag Read Accesses: 3269900
PIST Read Accesses: 1634950
PIST Tag Write Accesses: 3269900
PIST Write Accesses: 1634950
Criticality detector called times: 1695234
Max global_stall_cycles_count: 3967594
Threshold Modified: 4 times, factor: -4
Sturdy critical IP cache stats: 
 Unused entries: 0
CIC Tag Read Accesses: 0
CIC Read Accesses: 0
CIC Tag Write Accesses: 0
CIC Write Accesses: 0
Wobbly critical IP cache stats: 
 Unused entries: 93
CIC Tag Read Accesses: 88173239
CIC Read Accesses: 0
CIC Tag Write Accesses: 1773
CIC Write Accesses: 0
ITLB TOTAL     ACCESS:   10358146  HIT:    9872534  MISS:     485612  HIT %:    95.3118  MISS %:    4.68821   MPKI: 9.71224
ITLB LOAD TRANSLATION ACCESS:    8416443  HIT:    8407745  MISS:       8698  HIT %:    99.8967  MISS %:   0.103345   MPKI: 0.17396
ITLB TRANSLATION FROM L1D PREFETCHER ACCESS:    1941703  HIT:    1464789  MISS:     476914  HIT %:    75.4384  MISS %:    24.5616   MPKI: 9.53828
ITLB PREFETCH  REQUESTED:          0  ISSUED:          0  USEFUL:     432473  USELESS:      44441
ITLB USEFUL LOAD PREFETCHES:     432473 PREFETCH ISSUED TO LOWER LEVEL:          0  ACCURACY: inf
ITLB TIMELY PREFETCHES:     432473 LATE PREFETCHES: 158 DROPPED PREFETCHES: 0
ITLB PREFETCHES SAME FILL-ORIGIN LEVEL: 0 DIFFERENT FILL-ORIGIN LEVEL: 0
ITLB AVERAGE MISS LATENCY: 20419.6 cycles
ITLB RQ	ACCESS:   14952397	FORWARD:          0	MERGED:    4553752	TO_CACHE:   10398645

DTLB TOTAL     ACCESS:   10881534  HIT:   10471268  MISS:     410266  HIT %:    96.2297  MISS %:     3.7703   MPKI: 8.20532
DTLB LOAD TRANSLATION ACCESS:   10881534  HIT:   10471268  MISS:     410266  HIT %:    96.2297  MISS %:     3.7703   MPKI: 8.20532
DTLB PREFETCH  REQUESTED:          0  ISSUED:          0  USEFUL:          0  USELESS:          0
DTLB USEFUL LOAD PREFETCHES:          0 PREFETCH ISSUED TO LOWER LEVEL:          0  ACCURACY: -nan
DTLB TIMELY PREFETCHES:          0 LATE PREFETCHES: 0 DROPPED PREFETCHES: 0
DTLB PREFETCHES SAME FILL-ORIGIN LEVEL: 0 DIFFERENT FILL-ORIGIN LEVEL: 0
DTLB AVERAGE MISS LATENCY: 16.9721 cycles
DTLB RQ	ACCESS:   16216924	FORWARD:          0	MERGED:    5250714	TO_CACHE:   10966210

STLB TOTAL     ACCESS:    1486685  HIT:    1467137  MISS:      19548  HIT %:    98.6851  MISS %:    1.31487   MPKI: 0.39096
STLB LOAD TRANSLATION ACCESS:     418806  HIT:     399632  MISS:      19174  HIT %:    95.4217  MISS %:    4.57825   MPKI: 0.38348
STLB TRANSLATION FROM L1D PREFETCHER ACCESS:    1067879  HIT:    1067505  MISS:        374  HIT %:     99.965  MISS %:  0.0350227   MPKI: 0.00748
STLB PREFETCH  REQUESTED:          0  ISSUED:          0  USEFUL:        162  USELESS:        212
STLB USEFUL LOAD PREFETCHES:        162 PREFETCH ISSUED TO LOWER LEVEL:          0  ACCURACY: inf
STLB TIMELY PREFETCHES:        162 LATE PREFETCHES: 0 DROPPED PREFETCHES: 0
STLB PREFETCHES SAME FILL-ORIGIN LEVEL: 0 DIFFERENT FILL-ORIGIN LEVEL: 0
STLB AVERAGE MISS LATENCY: 174.638 cycles
STLB RQ	ACCESS:    1521800	FORWARD:          0	MERGED:      35115	TO_CACHE:    1486685

STLB Hit, L1D data hit: 0
STLB Hit, L2C data hit: 0
STLB Hit, LLC data hit: 0
STLB Hit, LLC data miss: 0
STLB STLB hints to L2: 0
L1D TOTAL     ACCESS:   14294390  HIT:   12447053  MISS:    1847337  HIT %:    87.0765  MISS %:    12.9235   MPKI: 36.9467
L1D LOAD      ACCESS:    7384398  HIT:    6809981  MISS:     574417  HIT %:    92.2212  MISS %:    7.77879   MPKI: 11.4883
L1D RFO       ACCESS:    6366552  HIT:    5370986  MISS:     995566  HIT %:    84.3626  MISS %:    15.6374   MPKI: 19.9113
L1D PREFETCH  ACCESS:     543440  HIT:     266086  MISS:     277354  HIT %:    48.9633  MISS %:    51.0367   MPKI: 5.54708
L1D PREFETCH  REQUESTED:    1251846  ISSUED:    1251846  USEFUL:     250015  USELESS:      27342
L1D USEFUL LOAD PREFETCHES:     250015 PREFETCH ISSUED TO LOWER LEVEL:     355543  ACCURACY: 70.3192
L1D TIMELY PREFETCHES:     250015 LATE PREFETCHES: 78188 DROPPED PREFETCHES: 0
L1D PREFETCHES SAME FILL-ORIGIN LEVEL: 355543 DIFFERENT FILL-ORIGIN LEVEL: 0
L1D AVERAGE MISS LATENCY: 2.62003e+06 cycles
L1D RQ	ACCESS:   11067930	FORWARD:          0	MERGED:    3518318	TO_CACHE:    7425183
L1D WQ	ACCESS:    8887929	FORWARD:     124431	MERGED:      96188	TO_CACHE:    8791741
L1D PQ	ACCESS:     625924	FORWARD:          0	MERGED:          0	TO_CACHE:     625922

L1D UNIQUE REGIONS ACCESSED: 0
L1D REGIONS CONFLICTS: 0
L1D Cross Page Prefetch Requests: 0
L1D Same Page Prefetch Requests: 1305175
L1D ROI Sum of L1D PQ occupancy: 9318870
L1D PREFETCHES PUSHED FROM L2C: 0
L1I TOTAL     ACCESS:   14869431  HIT:   11633571  MISS:    3235860  HIT %:    78.2382  MISS %:    21.7618   MPKI: 64.7172
L1I LOAD      ACCESS:    9820599  HIT:    9802002  MISS:      18597  HIT %:    99.8106  MISS %:   0.189367   MPKI: 0.37194
L1I PREFETCH  ACCESS:    5048832  HIT:    1831569  MISS:    3217263  HIT %:    36.2771  MISS %:    63.7229   MPKI: 64.3453
L1I PREFETCH  REQUESTED:    5288943  ISSUED:    5281905  USEFUL:    2678318  USELESS:     538941
L1I USEFUL LOAD PREFETCHES:    2678318 PREFETCH ISSUED TO LOWER LEVEL:    3222796  ACCURACY: 83.1054
L1I TIMELY PREFETCHES:    2678318 LATE PREFETCHES: 5530 DROPPED PREFETCHES: 0
L1I PREFETCHES SAME FILL-ORIGIN LEVEL: 3222796 DIFFERENT FILL-ORIGIN LEVEL: 0
L1I AVERAGE MISS LATENCY: 112386 cycles
L1I RQ	ACCESS:   14115455	FORWARD:          0	MERGED:    4291107	TO_CACHE:    9824348
L1I PQ	ACCESS:    5281905	FORWARD:          0	MERGED:     153856	TO_CACHE:    5128049

BTB TOTAL     ACCESS:    5297027  HIT:    5037183  MISS:     259844  HIT %:    95.0945  MISS %:    4.90547   MPKI: 5.19688
BTB BRANCH_DIRECT_JUMP	ACCESS:     445734  HIT:     443706  MISS:       2028
BTB BRANCH_INDIRECT	ACCESS:      48875  HIT:      48765  MISS:        110
BTB BRANCH_CONDITIONAL	ACCESS:    2967685  HIT:    2961525  MISS:       6160
BTB BRANCH_DIRECT_CALL	ACCESS:     758262  HIT:     754131  MISS:       4131
BTB BRANCH_INDIRECT_CALL	ACCESS:     159103  HIT:     129311  MISS:      29792
BTB BRANCH_RETURN	ACCESS:     917368  HIT:     699745  MISS:     217623
BTB BRANCH_OTHER ACCESS:          0  HIT:          0  MISS:          0

L2C TOTAL     ACCESS:    6277224  HIT:    4468178  MISS:    1809046  HIT %:    71.1808  MISS %:    28.8192   MPKI: 36.1809
L2C LOAD      ACCESS:     509283  HIT:     174025  MISS:     335258  HIT %:    34.1706  MISS %:    65.8294   MPKI: 6.70516
L2C DATA LOAD MPKI: 6.62756
L2C INSTRUCTION LOAD MPKI: 0.0776
L2C RFO       ACCESS:     995562  HIT:      43244  MISS:     952318  HIT %:    4.34368  MISS %:    95.6563   MPKI: 19.0464
L2C PREFETCH  ACCESS:    3578336  HIT:    3111401  MISS:     466935  HIT %:    86.9511  MISS %:    13.0489   MPKI: 9.3387
L2C DATA PREFETCH MPKI: 6.26608
L2C INSTRUCTION PREFETCH MPKI: 3.07262
L2C WRITEBACK ACCESS:    1172419  HIT:    1127479  MISS:      44940  HIT %:    96.1669  MISS %:     3.8331   MPKI: 0.8988
L2C LOAD TRANSLATION ACCESS:      21076  HIT:      11905  MISS:       9171  HIT %:    56.4861  MISS %:    43.5139   MPKI: 0.18342
L2C TRANSLATION FROM L1D PREFETCHER ACCESS:        548  HIT:        124  MISS:        424  HIT %:    22.6277  MISS %:    77.3723   MPKI: 0.00848
L2C PREFETCH  REQUESTED:          0  ISSUED:          0  USEFUL:       2992  USELESS:     464647
L2C USEFUL LOAD PREFETCHES:       2992 PREFETCH ISSUED TO LOWER LEVEL:     466935  ACCURACY: 0.640774
L2C TIMELY PREFETCHES:       2992 LATE PREFETCHES: 0 DROPPED PREFETCHES: 0
L2C PREFETCHES SAME FILL-ORIGIN LEVEL: 0 DIFFERENT FILL-ORIGIN LEVEL: 0
L2C AVERAGE MISS LATENCY: 171.312 cycles
L2C RQ	ACCESS:    1526485	FORWARD:          0	MERGED:          0	TO_CACHE:    1526469
L2C WQ	ACCESS:    1172419	FORWARD:         17	MERGED:          0	TO_CACHE:    1172419
L2C PQ	ACCESS:    3578339	FORWARD:          0	MERGED:          0	TO_CACHE:    3578338

L2C Instructions Evicting Data 144907
L2C Translations Evicting Data 8741
L2C Data Evicting Data 1447399
L2C Instructions Evicting Instructions 11844
L2C Translations Evicting Instructions 801
L2C Data Evicting Instructions 141024
L2C Instructions Evicting Translations 760
L2C Translations Evicting Translations 53
L2C Data Evicting Translations 8577
L2C Dense regions hint from L2: 0
PSCL5 TOTAL     ACCESS:      19548  HIT:      19548  MISS:          0  HIT %:        100  MISS %:          0   MPKI: 0
PSCL5 LOAD TRANSLATION ACCESS:      19174  HIT:      19174  MISS:          0  HIT %:        100  MISS %:          0   MPKI: 0
PSCL5 TRANSLATION FROM L1D PREFETCHER ACCESS:        374  HIT:        374  MISS:          0  HIT %:        100  MISS %:          0   MPKI: 0
PSCL5 PREFETCH  REQUESTED:          0  ISSUED:          0  USEFUL:          0  USELESS:          0
PSCL5 USEFUL LOAD PREFETCHES:          0 PREFETCH ISSUED TO LOWER LEVEL:          0  ACCURACY: -nan
PSCL5 TIMELY PREFETCHES:          0 LATE PREFETCHES: 0 DROPPED PREFETCHES: 0
PSCL5 PREFETCHES SAME FILL-ORIGIN LEVEL: 0 DIFFERENT FILL-ORIGIN LEVEL: 0

PSCL4 TOTAL     ACCESS:      17455  HIT:      17430  MISS:         25  HIT %:    99.8568  MISS %:   0.143225   MPKI: 0.0005
PSCL4 LOAD TRANSLATION ACCESS:      17091  HIT:      17066  MISS:         25  HIT %:    99.8537  MISS %:   0.146276   MPKI: 0.0005
PSCL4 TRANSLATION FROM L1D PREFETCHER ACCESS:        364  HIT:        364  MISS:          0  HIT %:        100  MISS %:          0   MPKI: 0
PSCL4 PREFETCH  REQUESTED:          0  ISSUED:          0  USEFUL:          0  USELESS:          0
PSCL4 USEFUL LOAD PREFETCHES:          0 PREFETCH ISSUED TO LOWER LEVEL:          0  ACCURACY: -nan
PSCL4 TIMELY PREFETCHES:          0 LATE PREFETCHES: 0 DROPPED PREFETCHES: 0
PSCL4 PREFETCHES SAME FILL-ORIGIN LEVEL: 0 DIFFERENT FILL-ORIGIN LEVEL: 0

PSCL3 TOTAL     ACCESS:      19541  HIT:      19491  MISS:         50  HIT %:    99.7441  MISS %:   0.255872   MPKI: 0.001
PSCL3 LOAD TRANSLATION ACCESS:      19188  HIT:      19138  MISS:         50  HIT %:    99.7394  MISS %:    0.26058   MPKI: 0.001
PSCL3 TRANSLATION FROM L1D PREFETCHER ACCESS:        353  HIT:        353  MISS:          0  HIT %:        100  MISS %:          0   MPKI: 0
PSCL3 PREFETCH  REQUESTED:          0  ISSUED:          0  USEFUL:          0  USELESS:          0
PSCL3 USEFUL LOAD PREFETCHES:          0 PREFETCH ISSUED TO LOWER LEVEL:          0  ACCURACY: -nan
PSCL3 TIMELY PREFETCHES:          0 LATE PREFETCHES: 0 DROPPED PREFETCHES: 0
PSCL3 PREFETCHES SAME FILL-ORIGIN LEVEL: 0 DIFFERENT FILL-ORIGIN LEVEL: 0

PSCL2 TOTAL     ACCESS:      19548  HIT:      17518  MISS:       2030  HIT %:    89.6153  MISS %:    10.3847   MPKI: 0.0406
PSCL2 LOAD TRANSLATION ACCESS:      19320  HIT:      17290  MISS:       2030  HIT %:    89.4928  MISS %:    10.5072   MPKI: 0.0406
PSCL2 TRANSLATION FROM L1D PREFETCHER ACCESS:        228  HIT:        228  MISS:          0  HIT %:        100  MISS %:          0   MPKI: 0
PSCL2 PREFETCH  REQUESTED:          0  ISSUED:          0  USEFUL:          0  USELESS:          0
PSCL2 USEFUL LOAD PREFETCHES:          0 PREFETCH ISSUED TO LOWER LEVEL:          0  ACCURACY: -nan
PSCL2 TIMELY PREFETCHES:          0 LATE PREFETCHES: 0 DROPPED PREFETCHES: 0
PSCL2 PREFETCHES SAME FILL-ORIGIN LEVEL: 0 DIFFERENT FILL-ORIGIN LEVEL: 0

LLC TOTAL     ACCESS:    2852492  HIT:    1342537  MISS:    1509955  HIT %:    47.0654  MISS %:    52.9346   MPKI: 30.1991
LLC LOAD      ACCESS:     335258  HIT:     283084  MISS:      52174  HIT %:    84.4377  MISS %:    15.5623   MPKI: 1.04348
LLC RFO       ACCESS:     952318  HIT:     233717  MISS:     718601  HIT %:    24.5419  MISS %:    75.4581   MPKI: 14.372
LLC PREFETCH  ACCESS:     466935  HIT:     165609  MISS:     301326  HIT %:    35.4672  MISS %:    64.5328   MPKI: 6.02652
LLC WRITEBACK ACCESS:    1088386  HIT:     657338  MISS:     431048  HIT %:    60.3957  MISS %:    39.6043   MPKI: 8.62096
LLC LOAD TRANSLATION ACCESS:       9171  HIT:       2637  MISS:       6534  HIT %:    28.7537  MISS %:    71.2463   MPKI: 0.13068
LLC TRANSLATION FROM L1D PREFETCHER ACCESS:        424  HIT:        152  MISS:        272  HIT %:    35.8491  MISS %:    64.1509   MPKI: 0.00544
LLC PREFETCH  REQUESTED:          0  ISSUED:          0  USEFUL:        791  USELESS:     305991
LLC USEFUL LOAD PREFETCHES:        791 PREFETCH ISSUED TO LOWER LEVEL:     301326  ACCURACY: 0.262506
LLC TIMELY PREFETCHES:        791 LATE PREFETCHES: 0 DROPPED PREFETCHES: 0
LLC PREFETCHES SAME FILL-ORIGIN LEVEL: 0 DIFFERENT FILL-ORIGIN LEVEL: 0
LLC AVERAGE MISS LATENCY: 168.53 cycles
LLC RQ	ACCESS:    1297171	FORWARD:          0	MERGED:          0	TO_CACHE:    1297171
LLC WQ	ACCESS:    1088386	FORWARD:          0	MERGED:          0	TO_CACHE:    1088386
LLC PQ	ACCESS:     466935	FORWARD:          0	MERGED:          0	TO_CACHE:     466935

LLC Dense regions hint to LLC: 0

RAW hits: 1388805
Loads Generated: 12456735
Loads sent to L1D: 11067930
Stores Generated: 8887926
Stores sent to L1D: 8887929
Major fault: 0 Minor fault: 23677
Allocated PAGES: 23677
I-Shadow cache 408 bytes
Touched + WorthPF tables 6144 bytes 
MMA filter 174 bytes 
FNL filter 272 bytes 
TOTAL PREFETCHER STORAGE SIZE: 25174 bytes
CPU 0 L1I next line prefetcher final stats

stream: 
stream:times selected: 3702035
stream:pref_filled: 66522
stream:pref_useful: 21505
stream:pref_late: 8495
stream:misses: 13412
stream:misses_by_poll: 0

CS: 
CS:times selected: 3435829
CS:pref_filled: 577900
CS:pref_useful: 555710
CS:pref_late: 69910
CS:misses: 82145
CS:misses_by_poll: 706

CPLX: 
CPLX:times selected: 260586
CPLX:pref_filled: 13976
CPLX:pref_useful: 1874
CPLX:pref_late: 399
CPLX:misses: 39027
CPLX:misses_by_poll: 1

NL_L1: 
NL:times selected: 1054
NL:pref_filled: 217
NL:pref_useful: 10
NL:pref_late: 3
NL:misses: 185
NL:misses_by_poll: 0

total selections: 7399504
total_filled: 277354
total_useful: 250015
total_late: 81441
total_polluted: 707
total_misses_after_warmup: 615200
conflicts: 2588885
Degree Incremented Times: 155376
Degree Decremented Times: 116136

L1 IP Table Write Accesses: 4698687
L1 IP Table Read Accesses: 2109802
L1 RST Write Accesses: 1850420
L1 RST Read Accesses: 3700840
L1 CSPT Write Accesses: 1850420
L1 CSPT Read Accesses: 1976193
L1 RR Filter Tag Write Accesses: 625924
L1 RR Filter Tag Read Accesses: 208382050
L1 IP Table Tag Write Accesses: 7425181
L1 IP Table Tag Read Accesses: 7425181
L1 RST Tag Write Accesses: 0
L1 RST Tag Read Accesses: 16876245
L1 RR Filter Write Accesses: 0
L1 RR Filter Read Accesses: 6756034
test: 131653

DRAM Statistics
 CHANNEL 0
 RQ ROW_BUFFER_HIT:     447335  ROW_BUFFER_MISS:     631449
 DBUS_CONGESTED:        496
 WQ ROW_BUFFER_HIT:     180135  ROW_BUFFER_MISS:     559022  FULL:      12700

 AVG_CONGESTED_CYCLE: 2
 All warmup complete: 2
Channel 0 Bank busy for read cycles: 0
Channel 0 Bank busy for write cycles: 0
Channel 0
Rank 0
0banks busy for read cycles: 27416803
0banks busy for write cycles: 45363
1banks busy for read cycles: 13049796
1banks busy for write cycles: 6568554
2banks busy for read cycles: 11555500
2banks busy for write cycles: 2805385
3banks busy for read cycles: 4982321
3banks busy for write cycles: 1452050
4banks busy for read cycles: 4017623
4banks busy for write cycles: 1046366
5banks busy for read cycles: 769152
5banks busy for write cycles: 910088
6banks busy for read cycles: 683793
6banks busy for write cycles: 929048
7banks busy for read cycles: 979538
7banks busy for write cycles: 1662119
8banks busy for read cycles: 4670983
8banks busy for write cycles: 10742702

CPU 0 Branch Prediction Accuracy: 99.8317% MPKI: 0.27564 Average ROB Occupancy at Mispredict: 110.489
Branch types
NOT_BRANCH: 41810965 83.6219%
BRANCH_DIRECT_JUMP: 445734 0.891468%
BRANCH_INDIRECT: 48875 0.09775%
BRANCH_CONDITIONAL: 5859370 11.7187%
BRANCH_DIRECT_CALL: 758262 1.51652%
BRANCH_INDIRECT_CALL: 159103 0.318206%
BRANCH_RETURN: 917368 1.83474%
BRANCH_OTHER: 0 0%

DRAM PAGES: 1048576
Allocated PAGES: 23677
