Initialize SIGNATURE TABLE
ST_SET: 1
ST_WAY: 256
ST_TAG_BIT: 16
ST_TAG_MASK: ffff

Initialize PATTERN TABLE
PT_SET: 512
PT_WAY: 4
SIG_DELTA_BIT: 7
C_SIG_BIT: 4
C_DELTA_BIT: 4

Initialize PREFETCH FILTER
FILTER_SET: 1024

*** ChampSim Multicore Out-of-Order Simulator ***

Warmup Instructions: 50000000
Simulation Instructions: 50000000
Number of CPUs: 1
LLC sets: 2048
LLC ways: 16
Off-chip DRAM Size: 4096 MB Channels: 1 Width: 64-bit Data Rate: 6400 MT/s
CPU 0 runs ../IPC-traces//server_035.champsimtrace.xz
.xz
BTB has LRU replacement policy
ITLB has LRU replacement policy
DTLB has LRU replacement policy
STLB has LRU replacement policy
CPU 0 L1I next line prefetcher
L1I has LRU replacement policy
L1D has LRU replacement policy
Initialize SRRIP state for L2C
Initialize DRRIP state for LLC
Heartbeat CPU 0 instructions: 10000001 cycles: 2763653 heartbeat IPC: 3.6184 cumulative IPC: 3.6184 (Simulation time: 0 hr 3 min 9 sec) 
Heartbeat CPU 0 instructions: 20000002 cycles: 5523591 heartbeat IPC: 3.62327 cumulative IPC: 3.62083 (Simulation time: 0 hr 5 min 52 sec) 
Heartbeat CPU 0 instructions: 30000003 cycles: 8284183 heartbeat IPC: 3.62241 cumulative IPC: 3.62136 (Simulation time: 0 hr 8 min 31 sec) 
Heartbeat CPU 0 instructions: 40000003 cycles: 11044729 heartbeat IPC: 3.62247 cumulative IPC: 3.62164 (Simulation time: 0 hr 10 min 56 sec) 
Heartbeat CPU 0 instructions: 50000003 cycles: 13803155 heartbeat IPC: 3.62526 cumulative IPC: 3.62236 (Simulation time: 0 hr 13 min 1 sec) 

Warmup complete CPU 0 instructions: 50000003 cycles: 13803155 (Simulation time: 0 hr 13 min 1 sec) 

Heartbeat CPU 0 instructions: 60000001 cycles: 29023585 heartbeat IPC: 0.657012 cumulative IPC: 0.657012 (Simulation time: 0 hr 15 min 35 sec) 
Heartbeat CPU 0 instructions: 70000003 cycles: 44057936 heartbeat IPC: 0.665144 cumulative IPC: 0.661053 (Simulation time: 0 hr 18 min 7 sec) 
Heartbeat CPU 0 instructions: 80000003 cycles: 59143635 heartbeat IPC: 0.662879 cumulative IPC: 0.66166 (Simulation time: 0 hr 20 min 39 sec) 
Heartbeat CPU 0 instructions: 90000001 cycles: 73950551 heartbeat IPC: 0.67536 cumulative IPC: 0.665033 (Simulation time: 0 hr 23 min 11 sec) 
Heartbeat CPU 0 instructions: 100000002 cycles: 89070823 heartbeat IPC: 0.661364 cumulative IPC: 0.664296 (Simulation time: 0 hr 26 min 13 sec) 
Finished CPU 0 instructions: 50000003 cycles: 75267669 cumulative IPC: 0.664296 (Simulation time: 0 hr 26 min 13 sec) 

ChampSim completed all CPUs

Region of Interest Statistics

CPU 0 cumulative IPC: 0.664296 instructions: 50000003 cycles: 75267669

CPU 0 Average Load ROB stall cycles: 1.91065e+07
CPU 0 Fraction of times ROB stalled by Loads: 37.0039
CPU 0 Percentage of Load stall cycles in Total stall cycles: 2.24003e+08
Issued all: 27717549
Issued LT all: 21954616
rob_not_full_when_issued_lt_all: 20184138
Issued LT one: 16832914
rob_not_full_when_issued_lt_one: 15139735
FVP critical_dynamic_instances_0: 943130
FVP unique_critical_ips_0: 2972
 Total stall cycles: 63160264
 Total load stall cycles: 141480727092450
Unique Load IPs: 8448
CPU 0 NUM of IPS identified critical: 0
CPU 0 Num of Load IPs stalling ROB: 0
Threshold modification factor: 0
Trouble in retire width: -nan
MaC = Marked as critical.
lt_50_percent_before_Mac: 0
gt_90_percent_before_Mac: 0
gt_75_percent_before_Mac: 0
gt_50_percent_before_Mac: 0
stall_proportion_bin_same_before_after: 0
stall_proportion_bin_lower_before_after: 0
stall_proportion_bin_upper_before_after: 0
average_stall_proportion_before: -nan
average_stall_proportion_after: -nan
Critical IP stalls, total frequency: 0
Non-critical IP stalls, total frequency: 0
Total Freq all stalling IPs: 0
Critical_IP_Detector_Accuracy_70: 0.000336474
Critical_IP_Detector_Accuracy_80: 0.000336474
Critical_IP_Detector_Accuracy_90: 0.000336474
Critical_IP_Detector_Coverage_70: 1
Critical_IP_Detector_Coverage_80: 1
Critical_IP_Detector_Coverage_90: 1
stat_90_percent_critical_ip_stalls_freq: 34620
stat_90_percent_non_critical_ip_stalls_freq: 18446744073709516996
AVERAGE_ROB_Occupancy_90_Percent_Critical_IP_Stalls: 17.7725
AVERAGE_ROB_Occupancy_90_Percent_Non_Critical_IP_Stalls: 9.27686e-12
Critical_IP_ROB_Stalls_Bucket_0: 0
Non-critical_IP_ROB_Stalls_Bucket_0: 1452057
Critical_IP_ROB_Stalls_Bucket_1: 0
Non-critical_IP_ROB_Stalls_Bucket_1: 770296
Critical_IP_ROB_Stalls_Bucket_2: 0
Non-critical_IP_ROB_Stalls_Bucket_2: 332166
Critical_IP_ROB_Stalls_Bucket_3: 0
Non-critical_IP_ROB_Stalls_Bucket_3: 118607
Critical_IP_ROB_Stalls_Bucket_4: 0
Non-critical_IP_ROB_Stalls_Bucket_4: 35797
Critical_IP_ROB_Stalls_Bucket_5: 0
Non-critical_IP_ROB_Stalls_Bucket_5: 8464
Critical_IP_ROB_Stalls_Bucket_6: 0
Non-critical_IP_ROB_Stalls_Bucket_6: 22701
0 => IPs accounting for >50 percent of stalls, 1 => 55, 2 => 60, 3 => 65 and so on till 90.
percent50: inf num IPs:  1
percent55: inf num IPs: 1
percent60: inf num IPs: 1
percent65: inf num IPs: 1
percent70: inf num IPs: 1
percent75: inf num IPs: 1
percent80: inf num IPs: 1
percent85: inf num IPs: 1
percent90: inf num IPs: 1
Critical_ROB_Stalls_Percent_0_Bucket_0: 34272
Non-critical_ROB_Stalls_Percent_0_Bucket_0: 1417785
Critical_ROB_Stalls_Percent_0_Bucket_1: 344
Non-critical_ROB_Stalls_Percent_0_Bucket_1: 769952
Critical_ROB_Stalls_Percent_0_Bucket_2: 1
Non-critical_ROB_Stalls_Percent_0_Bucket_2: 332165
Critical_ROB_Stalls_Percent_0_Bucket_3: 3
Non-critical_ROB_Stalls_Percent_0_Bucket_3: 118604
Critical_ROB_Stalls_Percent_0_Bucket_4: 0
Non-critical_ROB_Stalls_Percent_0_Bucket_4: 35797
Critical_ROB_Stalls_Percent_0_Bucket_5: 0
Non-critical_ROB_Stalls_Percent_0_Bucket_5: 8464
Critical_ROB_Stalls_Percent_0_Bucket_6: 0
Non-critical_ROB_Stalls_Percent_0_Bucket_6: 22701
Critical_ROB_Stalls_Percent_1_Bucket_0: 34272
Non-critical_ROB_Stalls_Percent_1_Bucket_0: 1417785
Critical_ROB_Stalls_Percent_1_Bucket_1: 344
Non-critical_ROB_Stalls_Percent_1_Bucket_1: 769952
Critical_ROB_Stalls_Percent_1_Bucket_2: 1
Non-critical_ROB_Stalls_Percent_1_Bucket_2: 332165
Critical_ROB_Stalls_Percent_1_Bucket_3: 3
Non-critical_ROB_Stalls_Percent_1_Bucket_3: 118604
Critical_ROB_Stalls_Percent_1_Bucket_4: 0
Non-critical_ROB_Stalls_Percent_1_Bucket_4: 35797
Critical_ROB_Stalls_Percent_1_Bucket_5: 0
Non-critical_ROB_Stalls_Percent_1_Bucket_5: 8464
Critical_ROB_Stalls_Percent_1_Bucket_6: 0
Non-critical_ROB_Stalls_Percent_1_Bucket_6: 22701
Critical_ROB_Stalls_Percent_2_Bucket_0: 34272
Non-critical_ROB_Stalls_Percent_2_Bucket_0: 1417785
Critical_ROB_Stalls_Percent_2_Bucket_1: 344
Non-critical_ROB_Stalls_Percent_2_Bucket_1: 769952
Critical_ROB_Stalls_Percent_2_Bucket_2: 1
Non-critical_ROB_Stalls_Percent_2_Bucket_2: 332165
Critical_ROB_Stalls_Percent_2_Bucket_3: 3
Non-critical_ROB_Stalls_Percent_2_Bucket_3: 118604
Critical_ROB_Stalls_Percent_2_Bucket_4: 0
Non-critical_ROB_Stalls_Percent_2_Bucket_4: 35797
Critical_ROB_Stalls_Percent_2_Bucket_5: 0
Non-critical_ROB_Stalls_Percent_2_Bucket_5: 8464
Critical_ROB_Stalls_Percent_2_Bucket_6: 0
Non-critical_ROB_Stalls_Percent_2_Bucket_6: 22701
Critical_ROB_Stalls_Percent_3_Bucket_0: 34272
Non-critical_ROB_Stalls_Percent_3_Bucket_0: 1417785
Critical_ROB_Stalls_Percent_3_Bucket_1: 344
Non-critical_ROB_Stalls_Percent_3_Bucket_1: 769952
Critical_ROB_Stalls_Percent_3_Bucket_2: 1
Non-critical_ROB_Stalls_Percent_3_Bucket_2: 332165
Critical_ROB_Stalls_Percent_3_Bucket_3: 3
Non-critical_ROB_Stalls_Percent_3_Bucket_3: 118604
Critical_ROB_Stalls_Percent_3_Bucket_4: 0
Non-critical_ROB_Stalls_Percent_3_Bucket_4: 35797
Critical_ROB_Stalls_Percent_3_Bucket_5: 0
Non-critical_ROB_Stalls_Percent_3_Bucket_5: 8464
Critical_ROB_Stalls_Percent_3_Bucket_6: 0
Non-critical_ROB_Stalls_Percent_3_Bucket_6: 22701
Critical_ROB_Stalls_Percent_4_Bucket_0: 34272
Non-critical_ROB_Stalls_Percent_4_Bucket_0: 1417785
Critical_ROB_Stalls_Percent_4_Bucket_1: 344
Non-critical_ROB_Stalls_Percent_4_Bucket_1: 769952
Critical_ROB_Stalls_Percent_4_Bucket_2: 1
Non-critical_ROB_Stalls_Percent_4_Bucket_2: 332165
Critical_ROB_Stalls_Percent_4_Bucket_3: 3
Non-critical_ROB_Stalls_Percent_4_Bucket_3: 118604
Critical_ROB_Stalls_Percent_4_Bucket_4: 0
Non-critical_ROB_Stalls_Percent_4_Bucket_4: 35797
Critical_ROB_Stalls_Percent_4_Bucket_5: 0
Non-critical_ROB_Stalls_Percent_4_Bucket_5: 8464
Critical_ROB_Stalls_Percent_4_Bucket_6: 0
Non-critical_ROB_Stalls_Percent_4_Bucket_6: 22701
Critical_ROB_Stalls_Percent_5_Bucket_0: 34272
Non-critical_ROB_Stalls_Percent_5_Bucket_0: 1417785
Critical_ROB_Stalls_Percent_5_Bucket_1: 344
Non-critical_ROB_Stalls_Percent_5_Bucket_1: 769952
Critical_ROB_Stalls_Percent_5_Bucket_2: 1
Non-critical_ROB_Stalls_Percent_5_Bucket_2: 332165
Critical_ROB_Stalls_Percent_5_Bucket_3: 3
Non-critical_ROB_Stalls_Percent_5_Bucket_3: 118604
Critical_ROB_Stalls_Percent_5_Bucket_4: 0
Non-critical_ROB_Stalls_Percent_5_Bucket_4: 35797
Critical_ROB_Stalls_Percent_5_Bucket_5: 0
Non-critical_ROB_Stalls_Percent_5_Bucket_5: 8464
Critical_ROB_Stalls_Percent_5_Bucket_6: 0
Non-critical_ROB_Stalls_Percent_5_Bucket_6: 22701
Critical_ROB_Stalls_Percent_6_Bucket_0: 34272
Non-critical_ROB_Stalls_Percent_6_Bucket_0: 1417785
Critical_ROB_Stalls_Percent_6_Bucket_1: 344
Non-critical_ROB_Stalls_Percent_6_Bucket_1: 769952
Critical_ROB_Stalls_Percent_6_Bucket_2: 1
Non-critical_ROB_Stalls_Percent_6_Bucket_2: 332165
Critical_ROB_Stalls_Percent_6_Bucket_3: 3
Non-critical_ROB_Stalls_Percent_6_Bucket_3: 118604
Critical_ROB_Stalls_Percent_6_Bucket_4: 0
Non-critical_ROB_Stalls_Percent_6_Bucket_4: 35797
Critical_ROB_Stalls_Percent_6_Bucket_5: 0
Non-critical_ROB_Stalls_Percent_6_Bucket_5: 8464
Critical_ROB_Stalls_Percent_6_Bucket_6: 0
Non-critical_ROB_Stalls_Percent_6_Bucket_6: 22701
Critical_ROB_Stalls_Percent_7_Bucket_0: 34272
Non-critical_ROB_Stalls_Percent_7_Bucket_0: 1417785
Critical_ROB_Stalls_Percent_7_Bucket_1: 344
Non-critical_ROB_Stalls_Percent_7_Bucket_1: 769952
Critical_ROB_Stalls_Percent_7_Bucket_2: 1
Non-critical_ROB_Stalls_Percent_7_Bucket_2: 332165
Critical_ROB_Stalls_Percent_7_Bucket_3: 3
Non-critical_ROB_Stalls_Percent_7_Bucket_3: 118604
Critical_ROB_Stalls_Percent_7_Bucket_4: 0
Non-critical_ROB_Stalls_Percent_7_Bucket_4: 35797
Critical_ROB_Stalls_Percent_7_Bucket_5: 0
Non-critical_ROB_Stalls_Percent_7_Bucket_5: 8464
Critical_ROB_Stalls_Percent_7_Bucket_6: 0
Non-critical_ROB_Stalls_Percent_7_Bucket_6: 22701
Critical_ROB_Stalls_Percent_8_Bucket_0: 34272
Non-critical_ROB_Stalls_Percent_8_Bucket_0: 1417785
Critical_ROB_Stalls_Percent_8_Bucket_1: 344
Non-critical_ROB_Stalls_Percent_8_Bucket_1: 769952
Critical_ROB_Stalls_Percent_8_Bucket_2: 1
Non-critical_ROB_Stalls_Percent_8_Bucket_2: 332165
Critical_ROB_Stalls_Percent_8_Bucket_3: 3
Non-critical_ROB_Stalls_Percent_8_Bucket_3: 118604
Critical_ROB_Stalls_Percent_8_Bucket_4: 0
Non-critical_ROB_Stalls_Percent_8_Bucket_4: 35797
Critical_ROB_Stalls_Percent_8_Bucket_5: 0
Non-critical_ROB_Stalls_Percent_8_Bucket_5: 8464
Critical_ROB_Stalls_Percent_8_Bucket_6: 0
Non-critical_ROB_Stalls_Percent_8_Bucket_6: 22701
Average ROB occupancy Load Stall Begin: 51.741
Average ROB occupancy Load Stall End: 62.678
Min ROB occupancy Load Stall Begin: 1
Max ROB occupancy Load Stall Begin: 352
Min ROB occupancy Load Stall End: 1
Max ROB occupancy Load Stall End: 352
Average ROB occupancy Critical Load Stall Begin: -nan
Average ROB occupancy Critical Load Stall End: -nan
Min ROB occupancy Critical Load Stall Begin: 400
Max ROB occupancy Critical Load Stall Begin: 0
Min ROB occupancy Critical Load Stall End: 400
Max ROB occupancy Critical Load Stall End: 0
 ROB Load Stall Begin Bucket Count 0: 1736809
 ROB Load Stall End Bucket Count 0: 1452057
 ROB Critical Load Stall Begin Bucket Count 0: 0
 ROB Critical Load Stall End Bucket Count 0: 0
 ROB Load Stall Begin Bucket Count 1: 624188
 ROB Load Stall End Bucket Count 1: 770296
 ROB Critical Load Stall Begin Bucket Count 1: 0
 ROB Critical Load Stall End Bucket Count 1: 0
 ROB Load Stall Begin Bucket Count 2: 254578
 ROB Load Stall End Bucket Count 2: 332166
 ROB Critical Load Stall Begin Bucket Count 2: 0
 ROB Critical Load Stall End Bucket Count 2: 0
 ROB Load Stall Begin Bucket Count 3: 77827
 ROB Load Stall End Bucket Count 3: 118607
 ROB Critical Load Stall Begin Bucket Count 3: 0
 ROB Critical Load Stall End Bucket Count 3: 0
 ROB Load Stall Begin Bucket Count 4: 20902
 ROB Load Stall End Bucket Count 4: 35797
 ROB Critical Load Stall Begin Bucket Count 4: 0
 ROB Critical Load Stall End Bucket Count 4: 0
 ROB Load Stall Begin Bucket Count 5: 4661
 ROB Load Stall End Bucket Count 5: 8464
 ROB Critical Load Stall Begin Bucket Count 5: 0
 ROB Critical Load Stall End Bucket Count 5: 0
 ROB Load Stall Begin Bucket Count 6: 21123
 ROB Load Stall End Bucket Count 6: 22701
 ROB Critical Load Stall Begin Bucket Count 6: 0
 ROB Critical Load Stall End Bucket Count 6: 0
PIST Tag Read Accesses: 0
PIST Read Accesses: 0
PIST Tag Write Accesses: 0
PIST Write Accesses: 0
Criticality detector called times: 0
Max global_stall_cycles_count: 0
Threshold Modified: 0 times, factor: 0
ITLB TOTAL     ACCESS:   10495757  HIT:    9888966  MISS:     606791  HIT %:    94.2187  MISS %:     5.7813   MPKI: 12.1358
ITLB LOAD TRANSLATION ACCESS:    8283165  HIT:    8260290  MISS:      22875  HIT %:    99.7238  MISS %:   0.276163   MPKI: 0.4575
ITLB TRANSLATION FROM L1D PREFETCHER ACCESS:    2212592  HIT:    1628676  MISS:     583916  HIT %:    73.6094  MISS %:    26.3906   MPKI: 11.6783
ITLB PREFETCH  REQUESTED:          0  ISSUED:          0  USEFUL:     516799  USELESS:      67116
ITLB USEFUL LOAD PREFETCHES:     516799 PREFETCH ISSUED TO LOWER LEVEL:          0  ACCURACY: inf
ITLB TIMELY PREFETCHES:     516799 LATE PREFETCHES: 73 DROPPED PREFETCHES: 1
ITLB PREFETCHES SAME FILL-ORIGIN LEVEL: 0 DIFFERENT FILL-ORIGIN LEVEL: 0
ITLB AVERAGE MISS LATENCY: 5382.32 cycles
ITLB RQ	ACCESS:   15807043	FORWARD:          0	MERGED:    5271260	TO_CACHE:   10535783

DTLB TOTAL     ACCESS:    9362483  HIT:    8914447  MISS:     448036  HIT %:    95.2146  MISS %:    4.78544   MPKI: 8.96072
DTLB LOAD TRANSLATION ACCESS:    9362483  HIT:    8914447  MISS:     448036  HIT %:    95.2146  MISS %:    4.78544   MPKI: 8.96072
DTLB PREFETCH  REQUESTED:          0  ISSUED:          0  USEFUL:          0  USELESS:          0
DTLB USEFUL LOAD PREFETCHES:          0 PREFETCH ISSUED TO LOWER LEVEL:          0  ACCURACY: -nan
DTLB TIMELY PREFETCHES:          0 LATE PREFETCHES: 0 DROPPED PREFETCHES: 0
DTLB PREFETCHES SAME FILL-ORIGIN LEVEL: 0 DIFFERENT FILL-ORIGIN LEVEL: 0
DTLB AVERAGE MISS LATENCY: 10.2509 cycles
DTLB RQ	ACCESS:   13308100	FORWARD:          0	MERGED:    3928040	TO_CACHE:    9380060

STLB TOTAL     ACCESS:    1054827  HIT:    1045029  MISS:       9798  HIT %:    99.0711  MISS %:   0.928873   MPKI: 0.19596
STLB LOAD TRANSLATION ACCESS:     470838  HIT:     461338  MISS:       9500  HIT %:    97.9823  MISS %:    2.01768   MPKI: 0.19
STLB TRANSLATION FROM L1D PREFETCHER ACCESS:     583989  HIT:     583691  MISS:        298  HIT %:     99.949  MISS %:  0.0510284   MPKI: 0.00596
STLB PREFETCH  REQUESTED:          0  ISSUED:          0  USEFUL:        235  USELESS:         58
STLB USEFUL LOAD PREFETCHES:        235 PREFETCH ISSUED TO LOWER LEVEL:          0  ACCURACY: inf
STLB TIMELY PREFETCHES:        235 LATE PREFETCHES: 0 DROPPED PREFETCHES: 1
STLB PREFETCHES SAME FILL-ORIGIN LEVEL: 0 DIFFERENT FILL-ORIGIN LEVEL: 0
STLB AVERAGE MISS LATENCY: 63.0791 cycles
STLB RQ	ACCESS:    1054828	FORWARD:          0	MERGED:          0	TO_CACHE:    1054828

STLB Hit, L1D data hit: 0
STLB Hit, L2C data hit: 0
STLB Hit, LLC data hit: 0
STLB Hit, LLC data miss: 0
STLB STLB hints to L2: 0
L1D TOTAL     ACCESS:   13160870  HIT:   12519734  MISS:     641136  HIT %:    95.1285  MISS %:    4.87153   MPKI: 12.8227
L1D LOAD      ACCESS:    6909041  HIT:    6362381  MISS:     546660  HIT %:    92.0878  MISS %:    7.91224   MPKI: 10.9332
L1D RFO       ACCESS:    6251829  HIT:    6157353  MISS:      94476  HIT %:    98.4888  MISS %:    1.51117   MPKI: 1.88952
L1D PREFETCH  REQUESTED:          0  ISSUED:          0  USEFUL:          0  USELESS:          0
L1D USEFUL LOAD PREFETCHES:          0 PREFETCH ISSUED TO LOWER LEVEL:          0  ACCURACY: -nan
L1D TIMELY PREFETCHES:          0 LATE PREFETCHES: 0 DROPPED PREFETCHES: 0
L1D PREFETCHES SAME FILL-ORIGIN LEVEL: 0 DIFFERENT FILL-ORIGIN LEVEL: 0
L1D AVERAGE MISS LATENCY: 65.6413 cycles
L1D RQ	ACCESS:   10473379	FORWARD:          0	MERGED:    3373557	TO_CACHE:    6940251
L1D WQ	ACCESS:    6507513	FORWARD:     159571	MERGED:     139664	TO_CACHE:    6367849

L1D UNIQUE REGIONS ACCESSED: 0
L1D REGIONS CONFLICTS: 0
L1D Cross Page Prefetch Requests: 0
L1D Same Page Prefetch Requests: 0
L1D ROI Sum of L1D PQ occupancy: 0
L1D PREFETCHES PUSHED FROM L2C: 0
L1I TOTAL     ACCESS:   15728050  HIT:   11382794  MISS:    4345256  HIT %:    72.3726  MISS %:    27.6274   MPKI: 86.9051
L1I LOAD      ACCESS:    9772181  HIT:    9744381  MISS:      27800  HIT %:    99.7155  MISS %:   0.284481   MPKI: 0.556
L1I PREFETCH  ACCESS:    5955869  HIT:    1638413  MISS:    4317456  HIT %:    27.5092  MISS %:    72.4908   MPKI: 86.3491
L1I PREFETCH  REQUESTED:    6248875  ISSUED:    6227721  USEFUL:    3431201  USELESS:     886216
L1I USEFUL LOAD PREFETCHES:    3431201 PREFETCH ISSUED TO LOWER LEVEL:    4332421  ACCURACY: 79.1982
L1I TIMELY PREFETCHES:    3431201 LATE PREFETCHES: 14966 DROPPED PREFETCHES: 1
L1I PREFETCHES SAME FILL-ORIGIN LEVEL: 4332421 DIFFERENT FILL-ORIGIN LEVEL: 0
L1I AVERAGE MISS LATENCY: 179283 cycles
L1I RQ	ACCESS:   14207066	FORWARD:          0	MERGED:    4432735	TO_CACHE:    9774331
L1I PQ	ACCESS:    6227721	FORWARD:          0	MERGED:     195009	TO_CACHE:    6032712

BTB TOTAL     ACCESS:    6352892  HIT:    5366352  MISS:     986540  HIT %:     84.471  MISS %:     15.529   MPKI: 19.7308
BTB BRANCH_DIRECT_JUMP	ACCESS:     771899  HIT:     694689  MISS:      77210
BTB BRANCH_INDIRECT	ACCESS:     108179  HIT:      73521  MISS:      34658
BTB BRANCH_CONDITIONAL	ACCESS:    2927570  HIT:    2714481  MISS:     213089
BTB BRANCH_DIRECT_CALL	ACCESS:    1060892  HIT:     946633  MISS:     114259
BTB BRANCH_INDIRECT_CALL	ACCESS:     211719  HIT:     145244  MISS:      66475
BTB BRANCH_RETURN	ACCESS:    1272633  HIT:     791784  MISS:     480849
BTB BRANCH_OTHER ACCESS:          0  HIT:          0  MISS:          0

L2C TOTAL     ACCESS:    5243525  HIT:    5028863  MISS:     214662  HIT %:    95.9062  MISS %:    4.09385   MPKI: 4.29324
L2C LOAD      ACCESS:     559465  HIT:     392036  MISS:     167429  HIT %:    70.0734  MISS %:    29.9266   MPKI: 3.34858
L2C DATA LOAD MPKI: 3.3225
L2C INSTRUCTION LOAD MPKI: 0.02608
L2C RFO       ACCESS:      94469  HIT:      67754  MISS:      26715  HIT %:    71.7209  MISS %:    28.2791   MPKI: 0.5343
L2C PREFETCH  ACCESS:    4349208  HIT:    4336683  MISS:      12525  HIT %:     99.712  MISS %:   0.287983   MPKI: 0.2505
L2C DATA PREFETCH MPKI: 0.02838
L2C INSTRUCTION PREFETCH MPKI: 0.22212
L2C WRITEBACK ACCESS:     229856  HIT:     226045  MISS:       3811  HIT %:     98.342  MISS %:    1.65799   MPKI: 0.07622
L2C LOAD TRANSLATION ACCESS:      10166  HIT:       6217  MISS:       3949  HIT %:    61.1548  MISS %:    38.8452   MPKI: 0.07898
L2C TRANSLATION FROM L1D PREFETCHER ACCESS:        361  HIT:        128  MISS:        233  HIT %:    35.4571  MISS %:    64.5429   MPKI: 0.00466
L2C PREFETCH  REQUESTED:      50663  ISSUED:      50663  USEFUL:       2145  USELESS:      10371
L2C USEFUL LOAD PREFETCHES:       2145 PREFETCH ISSUED TO LOWER LEVEL:      34422  ACCURACY: 6.23148
L2C TIMELY PREFETCHES:       2145 LATE PREFETCHES: 251 DROPPED PREFETCHES: 0
L2C PREFETCHES SAME FILL-ORIGIN LEVEL: 1670 DIFFERENT FILL-ORIGIN LEVEL: 21646
L2C AVERAGE MISS LATENCY: 160.341 cycles
L2C RQ	ACCESS:     664497	FORWARD:          0	MERGED:          0	TO_CACHE:     664461
L2C WQ	ACCESS:     229856	FORWARD:         36	MERGED:          0	TO_CACHE:     229856
L2C PQ	ACCESS:    4383084	FORWARD:          0	MERGED:       6165	TO_CACHE:    4376919

L2C Instructions Evicting Data 9705
L2C Translations Evicting Data 3890
L2C Data Evicting Data 181202
L2C Instructions Evicting Instructions 2562
L2C Translations Evicting Instructions 212
L2C Data Evicting Instructions 9172
L2C Instructions Evicting Translations 143
L2C Translations Evicting Translations 80
L2C Data Evicting Translations 3885
L2C Dense regions hint from L2: 0
PSCL5 TOTAL     ACCESS:       9799  HIT:       9799  MISS:          0  HIT %:        100  MISS %:          0   MPKI: 0
PSCL5 LOAD TRANSLATION ACCESS:       9500  HIT:       9500  MISS:          0  HIT %:        100  MISS %:          0   MPKI: 0
PSCL5 TRANSLATION FROM L1D PREFETCHER ACCESS:        299  HIT:        299  MISS:          0  HIT %:        100  MISS %:          0   MPKI: 0
PSCL5 PREFETCH  REQUESTED:          0  ISSUED:          0  USEFUL:          0  USELESS:          0
PSCL5 USEFUL LOAD PREFETCHES:          0 PREFETCH ISSUED TO LOWER LEVEL:          0  ACCURACY: -nan
PSCL5 TIMELY PREFETCHES:          0 LATE PREFETCHES: 0 DROPPED PREFETCHES: 0
PSCL5 PREFETCHES SAME FILL-ORIGIN LEVEL: 0 DIFFERENT FILL-ORIGIN LEVEL: 0

PSCL4 TOTAL     ACCESS:       9473  HIT:       9443  MISS:         30  HIT %:    99.6833  MISS %:    0.31669   MPKI: 0.0006
PSCL4 LOAD TRANSLATION ACCESS:       9181  HIT:       9151  MISS:         30  HIT %:    99.6732  MISS %:   0.326762   MPKI: 0.0006
PSCL4 TRANSLATION FROM L1D PREFETCHER ACCESS:        292  HIT:        292  MISS:          0  HIT %:        100  MISS %:          0   MPKI: 0
PSCL4 PREFETCH  REQUESTED:          0  ISSUED:          0  USEFUL:          0  USELESS:          0
PSCL4 USEFUL LOAD PREFETCHES:          0 PREFETCH ISSUED TO LOWER LEVEL:          0  ACCURACY: -nan
PSCL4 TIMELY PREFETCHES:          0 LATE PREFETCHES: 0 DROPPED PREFETCHES: 0
PSCL4 PREFETCHES SAME FILL-ORIGIN LEVEL: 0 DIFFERENT FILL-ORIGIN LEVEL: 0

PSCL3 TOTAL     ACCESS:       9603  HIT:       9573  MISS:         30  HIT %:    99.6876  MISS %:   0.312402   MPKI: 0.0006
PSCL3 LOAD TRANSLATION ACCESS:       9311  HIT:       9281  MISS:         30  HIT %:    99.6778  MISS %:     0.3222   MPKI: 0.0006
PSCL3 TRANSLATION FROM L1D PREFETCHER ACCESS:        292  HIT:        292  MISS:          0  HIT %:        100  MISS %:          0   MPKI: 0
PSCL3 PREFETCH  REQUESTED:          0  ISSUED:          0  USEFUL:          0  USELESS:          0
PSCL3 USEFUL LOAD PREFETCHES:          0 PREFETCH ISSUED TO LOWER LEVEL:          0  ACCURACY: -nan
PSCL3 TIMELY PREFETCHES:          0 LATE PREFETCHES: 0 DROPPED PREFETCHES: 0
PSCL3 PREFETCHES SAME FILL-ORIGIN LEVEL: 0 DIFFERENT FILL-ORIGIN LEVEL: 0

PSCL2 TOTAL     ACCESS:       9799  HIT:       9129  MISS:        670  HIT %:    93.1626  MISS %:    6.83743   MPKI: 0.0134
PSCL2 LOAD TRANSLATION ACCESS:       9556  HIT:       8886  MISS:        670  HIT %:    92.9887  MISS %:     7.0113   MPKI: 0.0134
PSCL2 TRANSLATION FROM L1D PREFETCHER ACCESS:        243  HIT:        243  MISS:          0  HIT %:        100  MISS %:          0   MPKI: 0
PSCL2 PREFETCH  REQUESTED:          0  ISSUED:          0  USEFUL:          0  USELESS:          0
PSCL2 USEFUL LOAD PREFETCHES:          0 PREFETCH ISSUED TO LOWER LEVEL:          0  ACCURACY: -nan
PSCL2 TIMELY PREFETCHES:          0 LATE PREFETCHES: 0 DROPPED PREFETCHES: 0
PSCL2 PREFETCHES SAME FILL-ORIGIN LEVEL: 0 DIFFERENT FILL-ORIGIN LEVEL: 0

LLC TOTAL     ACCESS:     326022  HIT:     150564  MISS:     175458  HIT %:    46.1822  MISS %:    53.8178   MPKI: 3.50916
LLC LOAD      ACCESS:     167178  HIT:      27863  MISS:     139315  HIT %:    16.6667  MISS %:    83.3333   MPKI: 2.7863
LLC RFO       ACCESS:      26715  HIT:       8144  MISS:      18571  HIT %:    30.4847  MISS %:    69.5153   MPKI: 0.37142
LLC PREFETCH  ACCESS:      32366  HIT:      17567  MISS:      14799  HIT %:    54.2761  MISS %:    45.7239   MPKI: 0.29598
LLC WRITEBACK ACCESS:      95581  HIT:      93979  MISS:       1602  HIT %:    98.3239  MISS %:    1.67607   MPKI: 0.03204
LLC LOAD TRANSLATION ACCESS:       3949  HIT:       2918  MISS:       1031  HIT %:    73.8921  MISS %:    26.1079   MPKI: 0.02062
LLC TRANSLATION FROM L1D PREFETCHER ACCESS:        233  HIT:         93  MISS:        140  HIT %:    39.9142  MISS %:    60.0858   MPKI: 0.0028
LLC PREFETCH  REQUESTED:          0  ISSUED:          0  USEFUL:       5329  USELESS:       7458
LLC USEFUL LOAD PREFETCHES:       5329 PREFETCH ISSUED TO LOWER LEVEL:      15279  ACCURACY: 34.8779
LLC TIMELY PREFETCHES:       5329 LATE PREFETCHES: 480 DROPPED PREFETCHES: 0
LLC PREFETCHES SAME FILL-ORIGIN LEVEL: 9664 DIFFERENT FILL-ORIGIN LEVEL: 0
LLC AVERAGE MISS LATENCY: 171.489 cycles
LLC RQ	ACCESS:     198075	FORWARD:          0	MERGED:          0	TO_CACHE:     198075
LLC WQ	ACCESS:      95581	FORWARD:          0	MERGED:          0	TO_CACHE:      95581
LLC PQ	ACCESS:      34422	FORWARD:          0	MERGED:        783	TO_CACHE:      33639

LLC Dense regions hint to LLC: 0

RAW hits: 1609331
Loads Generated: 12082709
Loads sent to L1D: 10473379
Stores Generated: 6507515
Stores sent to L1D: 6507513
Major fault: 0 Minor fault: 5644
Allocated PAGES: 5644
I-Shadow cache 408 bytes
Touched + WorthPF tables 6144 bytes 
MMA filter 174 bytes 
FNL filter 272 bytes 
TOTAL PREFETCHER STORAGE SIZE: 25174 bytes
CPU 0 L1I next line prefetcher final stats
 All Calls: 9665478
 Critical Calls: 94822
------------------
Depth Distribution
------------------
depth 0: 0
depth 1: 32639
depth 2: 11418
depth 3: 5196
depth 4: 2168
depth 5: 747
depth 6: 166
depth 7: 8
depth 8: 1
depth 9: 0
depth 10: 0
depth 11: 0
depth 12: 0
depth 13: 0
depth 14: 0
depth 15: 0
depth 16: 0
depth 17: 0
depth 18: 0
depth 19: 0
depth 20: 0
depth 21: 0
depth 22: 0
depth 23: 0
depth 24: 0
depth 25: 0
depth 26: 0
depth 27: 0
depth 28: 0
depth 29: 0
Total: 52343
-----------------------------
-----------------------------
	Captured at Filter
-----------------------------
depth 0: 0
depth 1: 1056
depth 2: 620
depth 3: 590
depth 4: 166
depth 5: 121
depth 6: 6
depth 7: 0
depth 8: 0
depth 9: 0
depth 10: 0
depth 11: 0
depth 12: 0
depth 13: 0
depth 14: 0
depth 15: 0
depth 16: 0
depth 17: 0
depth 18: 0
depth 19: 0
depth 20: 0
depth 21: 0
depth 22: 0
depth 23: 0
depth 24: 0
depth 25: 0
depth 26: 0
depth 27: 0
depth 28: 0
depth 29: 0
-----------------------------
-----------------------------
		Lost at Page
-----------------------------
depth 0: 0
depth 1: 2844
depth 2: 1282
depth 3: 1119
depth 4: 877
depth 5: 594
depth 6: 266
depth 7: 14
depth 8: 7
depth 9: 3
depth 10: 2
depth 11: 1
depth 12: 1
depth 13: 0
depth 14: 0
depth 15: 0
depth 16: 0
depth 17: 0
depth 18: 0
depth 19: 0
depth 20: 0
depth 21: 0
depth 22: 0
depth 23: 0
depth 24: 0
depth 25: 0
depth 26: 0
depth 27: 0
depth 28: 0
depth 29: 0
-----------------------------
-----------------------------
	Lost due to PQ Size
-----------------------------
0
-----------------------------
ST read accesses: 65243
ST write accesses: 7170
PT read accesses: 733346
PT write accesses: 59912
FILTER read accesses: 340297
FILTER write accesses: 220593
GHR read accesses: 106859
GHR write accesses: 6819
GHR counter read accesses: 664706
GHR counter write accesses: 77950
ST tag read accesses: 31229274
ST tag write accesses: 3203262

DRAM Statistics
 CHANNEL 0
 RQ ROW_BUFFER_HIT:      32125  ROW_BUFFER_MISS:     141730
 DBUS_CONGESTED:        337
 WQ ROW_BUFFER_HIT:      25043  ROW_BUFFER_MISS:      60160  FULL:          0

 AVG_CONGESTED_CYCLE: 4
 All warmup complete: 2
Channel 0 Bank busy for read cycles: 0
Channel 0 Bank busy for write cycles: 0
Channel 0
Rank 0
0banks busy for read cycles: 52943085
0banks busy for write cycles: 24575
1banks busy for read cycles: 9104723
1banks busy for write cycles: 3745236
2banks busy for read cycles: 3059564
2banks busy for write cycles: 1641111
3banks busy for read cycles: 1235744
3banks busy for write cycles: 911497
4banks busy for read cycles: 420334
4banks busy for write cycles: 575808
5banks busy for read cycles: 135082
5banks busy for write cycles: 412157
6banks busy for read cycles: 93222
6banks busy for write cycles: 325984
7banks busy for read cycles: 127008
7banks busy for write cycles: 272376
8banks busy for read cycles: 22356
8banks busy for write cycles: 217808

CPU 0 Branch Prediction Accuracy: 99.9115% MPKI: 0.17232 Average ROB Occupancy at Mispredict: 74.5545
Branch types
NOT_BRANCH: 40267215 80.5344%
BRANCH_DIRECT_JUMP: 771899 1.5438%
BRANCH_INDIRECT: 108179 0.216358%
BRANCH_CONDITIONAL: 6307160 12.6143%
BRANCH_DIRECT_CALL: 1060892 2.12178%
BRANCH_INDIRECT_CALL: 211719 0.423438%
BRANCH_RETURN: 1272633 2.54527%
BRANCH_OTHER: 0 0%

DRAM PAGES: 1048576
Allocated PAGES: 5644
