
*** ChampSim Multicore Out-of-Order Simulator ***

Warmup Instructions: 50000000
Simulation Instructions: 50000000
Number of CPUs: 1
LLC sets: 2048
LLC ways: 16
Off-chip DRAM Size: 4096 MB Channels: 1 Width: 64-bit Data Rate: 6400 MT/s
CPU 0 runs ../IPC-traces//server_020.champsimtrace.xz
.xz
NUM_OF_IPS_IN_CRITICAL_IP_TRAINING: 64
NUM_OF_CRITICAL_IP_TRAINING_TABLE_WAYS: 2
NUM_OF_CRITICAL_IP_TRAINING_TABLE_SETS: 32
WOBBLY_CRITICAL_IP_CACHE_SETS: 32
WOBBLY_CRITICAL_IP_CACHE_WAYS: 4
BTB has LRU replacement policy
ITLB has LRU replacement policy
DTLB has LRU replacement policy
STLB has LRU replacement policy
CPU 0 L1I next line prefetcher
L1I has LRU replacement policy
IP Table Entries: 64
L1D has LRU replacement policy
Initialize SRRIP state for L2C
Initialize DRRIP state for LLC
Heartbeat CPU 0 instructions: 10000003 cycles: 3145844 heartbeat IPC: 3.1788 cumulative IPC: 3.1788 (Simulation time: 0 hr 5 min 17 sec) 
Heartbeat CPU 0 instructions: 20000001 cycles: 6299620 heartbeat IPC: 3.1708 cumulative IPC: 3.17479 (Simulation time: 0 hr 10 min 26 sec) 
Heartbeat CPU 0 instructions: 30000000 cycles: 9441136 heartbeat IPC: 3.18318 cumulative IPC: 3.17758 (Simulation time: 0 hr 15 min 35 sec) 
Heartbeat CPU 0 instructions: 40000001 cycles: 12583806 heartbeat IPC: 3.18201 cumulative IPC: 3.17869 (Simulation time: 0 hr 20 min 22 sec) 
Heartbeat CPU 0 instructions: 50000000 cycles: 15739198 heartbeat IPC: 3.16918 cumulative IPC: 3.17678 (Simulation time: 0 hr 24 min 37 sec) 

Warmup complete CPU 0 instructions: 50000004 cycles: 15739199 (Simulation time: 0 hr 24 min 37 sec) 

% increase in all ip prefetch 453.641
% increase in all ip prefetch 4.66556
% increase in all ip prefetch 12.9599
% increase in all ip prefetch 15.2997
% increase in all ip prefetch 15.1437
Heartbeat CPU 0 instructions: 60000000 cycles: 34279827 heartbeat IPC: 0.539356 cumulative IPC: 0.539356 (Simulation time: 0 hr 29 min 38 sec) 
Heartbeat CPU 0 instructions: 70000002 cycles: 52707262 heartbeat IPC: 0.542669 cumulative IPC: 0.541007 (Simulation time: 0 hr 34 min 42 sec) 
Heartbeat CPU 0 instructions: 80000002 cycles: 71079488 heartbeat IPC: 0.5443 cumulative IPC: 0.5421 (Simulation time: 0 hr 39 min 31 sec) 
Heartbeat CPU 0 instructions: 90000003 cycles: 89372697 heartbeat IPC: 0.546651 cumulative IPC: 0.543231 (Simulation time: 0 hr 45 min 0 sec) 
Heartbeat CPU 0 instructions: 100000002 cycles: 107718864 heartbeat IPC: 0.545073 cumulative IPC: 0.543598 (Simulation time: 0 hr 51 min 5 sec) 
Finished CPU 0 instructions: 50000002 cycles: 91979666 cumulative IPC: 0.543598 (Simulation time: 0 hr 51 min 5 sec) 

ChampSim completed all CPUs

Region of Interest Statistics

CPU 0 cumulative IPC: 0.543598 instructions: 50000002 cycles: 91979666

CPU 0 Average Load ROB stall cycles: 2.79978e+07
CPU 0 Fraction of times ROB stalled by Loads: 45.3216
CPU 0 Percentage of Load stall cycles in Total stall cycles: 2.66287e+08
Issued all: 47100887
Issued LT all: 41766675
rob_not_full_when_issued_lt_all: 16972740
Issued LT one: 35995180
rob_not_full_when_issued_lt_one: 12946904
 Total stall cycles: 75152542
 Total load stall cycles: 200121315317364
CPU 0 NUM of IPS identified critical: 0
CPU 0 Num of Load IPs stalling ROB: 4728
Threshold modification factor: 0
Max PIST entries: 64
Min PIST entries: 0
Avg PIST entries: 32
Trouble in retire width: 0.80224
MaC = Marked as critical.
lt_50_percent_before_Mac: 0
gt_90_percent_before_Mac: 0
gt_75_percent_before_Mac: 0
gt_50_percent_before_Mac: 0
stall_proportion_bin_same_before_after: 0
stall_proportion_bin_lower_before_after: 0
stall_proportion_bin_upper_before_after: 0
average_stall_proportion_before: -nan
average_stall_proportion_after: -nan
Critical IP stalls, total frequency: 0
Non-critical IP stalls, total frequency: 3239467
Total Freq all stalling IPs: 3239467
stat_90_percent_critical_ip_stalls_freq: 2916483
stat_90_percent_non_critical_ip_stalls_freq: 322984
Critical_IP_ROB_Stalls_Bucket_0: 0
Non-critical_IP_ROB_Stalls_Bucket_0: 493237
Critical_IP_ROB_Stalls_Bucket_1: 0
Non-critical_IP_ROB_Stalls_Bucket_1: 623498
Critical_IP_ROB_Stalls_Bucket_2: 0
Non-critical_IP_ROB_Stalls_Bucket_2: 464874
Critical_IP_ROB_Stalls_Bucket_3: 0
Non-critical_IP_ROB_Stalls_Bucket_3: 273428
Critical_IP_ROB_Stalls_Bucket_4: 0
Non-critical_IP_ROB_Stalls_Bucket_4: 165610
Critical_IP_ROB_Stalls_Bucket_5: 0
Non-critical_IP_ROB_Stalls_Bucket_5: 147899
Critical_IP_ROB_Stalls_Bucket_6: 0
Non-critical_IP_ROB_Stalls_Bucket_6: 1070921
0 => IPs accounting for >50 percent of stalls, 1 => 55, 2 => 60, 3 => 65 and so on till 90.
percent50: 50.2501 num IPs:  12
percent55: 55.0397 num IPs: 29
percent60: 60.1398 num IPs: 60
percent65: 65.0215 num IPs: 103
percent70: 70.014 num IPs: 171
percent75: 75.0647 num IPs: 241
percent80: 80.0647 num IPs: 312
percent85: 85.0104 num IPs: 388
percent90: 90.0295 num IPs: 488
Critical_ROB_Stalls_Percent_0_Bucket_0: 52602
Non-critical_ROB_Stalls_Percent_0_Bucket_0: 440635
Critical_ROB_Stalls_Percent_0_Bucket_1: 118060
Non-critical_ROB_Stalls_Percent_0_Bucket_1: 505438
Critical_ROB_Stalls_Percent_0_Bucket_2: 152258
Non-critical_ROB_Stalls_Percent_0_Bucket_2: 312616
Critical_ROB_Stalls_Percent_0_Bucket_3: 135859
Non-critical_ROB_Stalls_Percent_0_Bucket_3: 137569
Critical_ROB_Stalls_Percent_0_Bucket_4: 109259
Non-critical_ROB_Stalls_Percent_0_Bucket_4: 56351
Critical_ROB_Stalls_Percent_0_Bucket_5: 104724
Non-critical_ROB_Stalls_Percent_0_Bucket_5: 43175
Critical_ROB_Stalls_Percent_0_Bucket_6: 955072
Non-critical_ROB_Stalls_Percent_0_Bucket_6: 115849
Critical_ROB_Stalls_Percent_1_Bucket_0: 110165
Non-critical_ROB_Stalls_Percent_1_Bucket_0: 383072
Critical_ROB_Stalls_Percent_1_Bucket_1: 169858
Non-critical_ROB_Stalls_Percent_1_Bucket_1: 453640
Critical_ROB_Stalls_Percent_1_Bucket_2: 169993
Non-critical_ROB_Stalls_Percent_1_Bucket_2: 294881
Critical_ROB_Stalls_Percent_1_Bucket_3: 154995
Non-critical_ROB_Stalls_Percent_1_Bucket_3: 118433
Critical_ROB_Stalls_Percent_1_Bucket_4: 113979
Non-critical_ROB_Stalls_Percent_1_Bucket_4: 51631
Critical_ROB_Stalls_Percent_1_Bucket_5: 107397
Non-critical_ROB_Stalls_Percent_1_Bucket_5: 40502
Critical_ROB_Stalls_Percent_1_Bucket_6: 956606
Non-critical_ROB_Stalls_Percent_1_Bucket_6: 114315
Critical_ROB_Stalls_Percent_2_Bucket_0: 165707
Non-critical_ROB_Stalls_Percent_2_Bucket_0: 327530
Critical_ROB_Stalls_Percent_2_Bucket_1: 201132
Non-critical_ROB_Stalls_Percent_2_Bucket_1: 422366
Critical_ROB_Stalls_Percent_2_Bucket_2: 199326
Non-critical_ROB_Stalls_Percent_2_Bucket_2: 265548
Critical_ROB_Stalls_Percent_2_Bucket_3: 164393
Non-critical_ROB_Stalls_Percent_2_Bucket_3: 109035
Critical_ROB_Stalls_Percent_2_Bucket_4: 119042
Non-critical_ROB_Stalls_Percent_2_Bucket_4: 46568
Critical_ROB_Stalls_Percent_2_Bucket_5: 114312
Non-critical_ROB_Stalls_Percent_2_Bucket_5: 33587
Critical_ROB_Stalls_Percent_2_Bucket_6: 984296
Non-critical_ROB_Stalls_Percent_2_Bucket_6: 86625
Critical_ROB_Stalls_Percent_3_Bucket_0: 206586
Non-critical_ROB_Stalls_Percent_3_Bucket_0: 286651
Critical_ROB_Stalls_Percent_3_Bucket_1: 244038
Non-critical_ROB_Stalls_Percent_3_Bucket_1: 379460
Critical_ROB_Stalls_Percent_3_Bucket_2: 236573
Non-critical_ROB_Stalls_Percent_3_Bucket_2: 228301
Critical_ROB_Stalls_Percent_3_Bucket_3: 172588
Non-critical_ROB_Stalls_Percent_3_Bucket_3: 100840
Critical_ROB_Stalls_Percent_3_Bucket_4: 123973
Non-critical_ROB_Stalls_Percent_3_Bucket_4: 41637
Critical_ROB_Stalls_Percent_3_Bucket_5: 120469
Non-critical_ROB_Stalls_Percent_3_Bucket_5: 27430
Critical_ROB_Stalls_Percent_3_Bucket_6: 1002123
Non-critical_ROB_Stalls_Percent_3_Bucket_6: 68798
Critical_ROB_Stalls_Percent_4_Bucket_0: 230260
Non-critical_ROB_Stalls_Percent_4_Bucket_0: 262977
Critical_ROB_Stalls_Percent_4_Bucket_1: 300786
Non-critical_ROB_Stalls_Percent_4_Bucket_1: 322712
Critical_ROB_Stalls_Percent_4_Bucket_2: 271143
Non-critical_ROB_Stalls_Percent_4_Bucket_2: 193731
Critical_ROB_Stalls_Percent_4_Bucket_3: 191293
Non-critical_ROB_Stalls_Percent_4_Bucket_3: 82135
Critical_ROB_Stalls_Percent_4_Bucket_4: 137431
Non-critical_ROB_Stalls_Percent_4_Bucket_4: 28179
Critical_ROB_Stalls_Percent_4_Bucket_5: 128399
Non-critical_ROB_Stalls_Percent_4_Bucket_5: 19500
Critical_ROB_Stalls_Percent_4_Bucket_6: 1008775
Non-critical_ROB_Stalls_Percent_4_Bucket_6: 62146
Critical_ROB_Stalls_Percent_5_Bucket_0: 264008
Non-critical_ROB_Stalls_Percent_5_Bucket_0: 229229
Critical_ROB_Stalls_Percent_5_Bucket_1: 354612
Non-critical_ROB_Stalls_Percent_5_Bucket_1: 268886
Critical_ROB_Stalls_Percent_5_Bucket_2: 312678
Non-critical_ROB_Stalls_Percent_5_Bucket_2: 152196
Critical_ROB_Stalls_Percent_5_Bucket_3: 208467
Non-critical_ROB_Stalls_Percent_5_Bucket_3: 64961
Critical_ROB_Stalls_Percent_5_Bucket_4: 144998
Non-critical_ROB_Stalls_Percent_5_Bucket_4: 20612
Critical_ROB_Stalls_Percent_5_Bucket_5: 132380
Non-critical_ROB_Stalls_Percent_5_Bucket_5: 15519
Critical_ROB_Stalls_Percent_5_Bucket_6: 1014558
Non-critical_ROB_Stalls_Percent_5_Bucket_6: 56363
Critical_ROB_Stalls_Percent_6_Bucket_0: 294976
Non-critical_ROB_Stalls_Percent_6_Bucket_0: 198261
Critical_ROB_Stalls_Percent_6_Bucket_1: 421727
Non-critical_ROB_Stalls_Percent_6_Bucket_1: 201771
Critical_ROB_Stalls_Percent_6_Bucket_2: 346281
Non-critical_ROB_Stalls_Percent_6_Bucket_2: 118593
Critical_ROB_Stalls_Percent_6_Bucket_3: 227916
Non-critical_ROB_Stalls_Percent_6_Bucket_3: 45512
Critical_ROB_Stalls_Percent_6_Bucket_4: 148913
Non-critical_ROB_Stalls_Percent_6_Bucket_4: 16697
Critical_ROB_Stalls_Percent_6_Bucket_5: 134256
Non-critical_ROB_Stalls_Percent_6_Bucket_5: 13643
Critical_ROB_Stalls_Percent_6_Bucket_6: 1019606
Non-critical_ROB_Stalls_Percent_6_Bucket_6: 51315
Critical_ROB_Stalls_Percent_7_Bucket_0: 338895
Non-critical_ROB_Stalls_Percent_7_Bucket_0: 154342
Critical_ROB_Stalls_Percent_7_Bucket_1: 466091
Non-critical_ROB_Stalls_Percent_7_Bucket_1: 157407
Critical_ROB_Stalls_Percent_7_Bucket_2: 390191
Non-critical_ROB_Stalls_Percent_7_Bucket_2: 74683
Critical_ROB_Stalls_Percent_7_Bucket_3: 241919
Non-critical_ROB_Stalls_Percent_7_Bucket_3: 31509
Critical_ROB_Stalls_Percent_7_Bucket_4: 152812
Non-critical_ROB_Stalls_Percent_7_Bucket_4: 12798
Critical_ROB_Stalls_Percent_7_Bucket_5: 135736
Non-critical_ROB_Stalls_Percent_7_Bucket_5: 12163
Critical_ROB_Stalls_Percent_7_Bucket_6: 1028246
Non-critical_ROB_Stalls_Percent_7_Bucket_6: 42675
Critical_ROB_Stalls_Percent_8_Bucket_0: 390835
Non-critical_ROB_Stalls_Percent_8_Bucket_0: 102402
Critical_ROB_Stalls_Percent_8_Bucket_1: 527984
Non-critical_ROB_Stalls_Percent_8_Bucket_1: 95514
Critical_ROB_Stalls_Percent_8_Bucket_2: 413940
Non-critical_ROB_Stalls_Percent_8_Bucket_2: 50934
Critical_ROB_Stalls_Percent_8_Bucket_3: 246435
Non-critical_ROB_Stalls_Percent_8_Bucket_3: 26993
Critical_ROB_Stalls_Percent_8_Bucket_4: 155619
Non-critical_ROB_Stalls_Percent_8_Bucket_4: 9991
Critical_ROB_Stalls_Percent_8_Bucket_5: 139282
Non-critical_ROB_Stalls_Percent_8_Bucket_5: 8617
Critical_ROB_Stalls_Percent_8_Bucket_6: 1042388
Non-critical_ROB_Stalls_Percent_8_Bucket_6: 28533
Average ROB occupancy Load Stall Begin: 181.904
Average ROB occupancy Load Stall End: 190.41
Min ROB occupancy Load Stall Begin: 1
Max ROB occupancy Load Stall Begin: 352
Min ROB occupancy Load Stall End: 1
Max ROB occupancy Load Stall End: 352
Average ROB occupancy Critical Load Stall Begin: -nan
Average ROB occupancy Critical Load Stall End: -nan
Min ROB occupancy Critical Load Stall Begin: 400
Max ROB occupancy Critical Load Stall Begin: 0
Min ROB occupancy Critical Load Stall End: 400
Max ROB occupancy Critical Load Stall End: 0
 ROB Load Stall Begin Bucket Count 0: 702189
 ROB Load Stall End Bucket Count 0: 493237
 ROB Critical Load Stall Begin Bucket Count 0: 0
 ROB Critical Load Stall End Bucket Count 0: 0
 ROB Load Stall Begin Bucket Count 1: 556786
 ROB Load Stall End Bucket Count 1: 623498
 ROB Critical Load Stall Begin Bucket Count 1: 0
 ROB Critical Load Stall End Bucket Count 1: 0
 ROB Load Stall Begin Bucket Count 2: 406031
 ROB Load Stall End Bucket Count 2: 464874
 ROB Critical Load Stall Begin Bucket Count 2: 0
 ROB Critical Load Stall End Bucket Count 2: 0
 ROB Load Stall Begin Bucket Count 3: 228477
 ROB Load Stall End Bucket Count 3: 273428
 ROB Critical Load Stall Begin Bucket Count 3: 0
 ROB Critical Load Stall End Bucket Count 3: 0
 ROB Load Stall Begin Bucket Count 4: 153170
 ROB Load Stall End Bucket Count 4: 165610
 ROB Critical Load Stall Begin Bucket Count 4: 0
 ROB Critical Load Stall End Bucket Count 4: 0
 ROB Load Stall Begin Bucket Count 5: 149024
 ROB Load Stall End Bucket Count 5: 147899
 ROB Critical Load Stall Begin Bucket Count 5: 0
 ROB Critical Load Stall End Bucket Count 5: 0
 ROB Load Stall Begin Bucket Count 6: 1043790
 ROB Load Stall End Bucket Count 6: 1070921
 ROB Critical Load Stall Begin Bucket Count 6: 0
 ROB Critical Load Stall End Bucket Count 6: 0
PIST Tag Read Accesses: 2728028
PIST Read Accesses: 1364014
PIST Tag Write Accesses: 2728028
PIST Write Accesses: 1364014
Criticality detector called times: 1410868
Max global_stall_cycles_count: 3854722
Threshold Modified: 5 times, factor: 0
Sturdy critical IP cache stats: 
 Unused entries: 0
CIC Tag Read Accesses: 0
CIC Read Accesses: 0
CIC Tag Write Accesses: 0
CIC Write Accesses: 0
Wobbly critical IP cache stats: 
 Unused entries: 0
CIC Tag Read Accesses: 93210608
CIC Read Accesses: 0
CIC Tag Write Accesses: 599923
CIC Write Accesses: 0
ITLB TOTAL     ACCESS:   10271918  HIT:    9811779  MISS:     460139  HIT %:    95.5204  MISS %:    4.47958   MPKI: 9.20278
ITLB LOAD TRANSLATION ACCESS:    8374408  HIT:    8365613  MISS:       8795  HIT %:     99.895  MISS %:   0.105022   MPKI: 0.1759
ITLB TRANSLATION FROM L1D PREFETCHER ACCESS:    1897510  HIT:    1446166  MISS:     451344  HIT %:    76.2139  MISS %:    23.7861   MPKI: 9.02688
ITLB PREFETCH  REQUESTED:          0  ISSUED:          0  USEFUL:     410282  USELESS:      41058
ITLB USEFUL LOAD PREFETCHES:     410282 PREFETCH ISSUED TO LOWER LEVEL:          0  ACCURACY: inf
ITLB TIMELY PREFETCHES:     410282 LATE PREFETCHES: 280 DROPPED PREFETCHES: 0
ITLB PREFETCHES SAME FILL-ORIGIN LEVEL: 0 DIFFERENT FILL-ORIGIN LEVEL: 0
ITLB AVERAGE MISS LATENCY: 38112.7 cycles
ITLB RQ	ACCESS:   14712926	FORWARD:          0	MERGED:    4389312	TO_CACHE:   10323614

DTLB TOTAL     ACCESS:   10829777  HIT:   10409859  MISS:     419918  HIT %:    96.1226  MISS %:    3.87744   MPKI: 8.39836
DTLB LOAD TRANSLATION ACCESS:   10829777  HIT:   10409859  MISS:     419918  HIT %:    96.1226  MISS %:    3.87744   MPKI: 8.39836
DTLB PREFETCH  REQUESTED:          0  ISSUED:          0  USEFUL:          0  USELESS:          0
DTLB USEFUL LOAD PREFETCHES:          0 PREFETCH ISSUED TO LOWER LEVEL:          0  ACCURACY: -nan
DTLB TIMELY PREFETCHES:          0 LATE PREFETCHES: 0 DROPPED PREFETCHES: 0
DTLB PREFETCHES SAME FILL-ORIGIN LEVEL: 0 DIFFERENT FILL-ORIGIN LEVEL: 0
DTLB AVERAGE MISS LATENCY: 17.7709 cycles
DTLB RQ	ACCESS:   16047722	FORWARD:          0	MERGED:    5135235	TO_CACHE:   10912487

STLB TOTAL     ACCESS:    1474750  HIT:    1441526  MISS:      33224  HIT %:    97.7471  MISS %:    2.25286   MPKI: 0.66448
STLB LOAD TRANSLATION ACCESS:     428433  HIT:     396010  MISS:      32423  HIT %:    92.4322  MISS %:    7.56781   MPKI: 0.64846
STLB TRANSLATION FROM L1D PREFETCHER ACCESS:    1046317  HIT:    1045516  MISS:        801  HIT %:    99.9234  MISS %:  0.0765542   MPKI: 0.01602
STLB PREFETCH  REQUESTED:          0  ISSUED:          0  USEFUL:        499  USELESS:        289
STLB USEFUL LOAD PREFETCHES:        499 PREFETCH ISSUED TO LOWER LEVEL:          0  ACCURACY: inf
STLB TIMELY PREFETCHES:        499 LATE PREFETCHES: 0 DROPPED PREFETCHES: 0
STLB PREFETCHES SAME FILL-ORIGIN LEVEL: 0 DIFFERENT FILL-ORIGIN LEVEL: 0
STLB AVERAGE MISS LATENCY: 117.223 cycles
STLB RQ	ACCESS:    1794238	FORWARD:          0	MERGED:     319488	TO_CACHE:    1474750

STLB Hit, L1D data hit: 0
STLB Hit, L2C data hit: 0
STLB Hit, LLC data hit: 0
STLB Hit, LLC data miss: 0
STLB STLB hints to L2: 0
L1D TOTAL     ACCESS:   14539204  HIT:   12513693  MISS:    2025511  HIT %:    86.0686  MISS %:    13.9314   MPKI: 40.5102
L1D LOAD      ACCESS:    7386152  HIT:    6836002  MISS:     550150  HIT %:    92.5516  MISS %:     7.4484   MPKI: 11.003
L1D RFO       ACCESS:    6253881  HIT:    5294774  MISS:     959107  HIT %:    84.6638  MISS %:    15.3362   MPKI: 19.1821
L1D PREFETCH  ACCESS:     899171  HIT:     382917  MISS:     516254  HIT %:    42.5856  MISS %:    57.4144   MPKI: 10.3251
L1D PREFETCH  REQUESTED:    1833451  ISSUED:    1828371  USEFUL:     320020  USELESS:     196280
L1D USEFUL LOAD PREFETCHES:     320020 PREFETCH ISSUED TO LOWER LEVEL:     525302  ACCURACY: 60.9211
L1D TIMELY PREFETCHES:     320020 LATE PREFETCHES: 8849 DROPPED PREFETCHES: 0
L1D PREFETCHES SAME FILL-ORIGIN LEVEL: 525302 DIFFERENT FILL-ORIGIN LEVEL: 0
L1D AVERAGE MISS LATENCY: 272150 cycles
L1D RQ	ACCESS:   11049366	FORWARD:          0	MERGED:    3505133	TO_CACHE:    7424688
L1D WQ	ACCESS:    8713551	FORWARD:     119554	MERGED:      90517	TO_CACHE:    8623034
L1D PQ	ACCESS:     914190	FORWARD:          0	MERGED:          0	TO_CACHE:     914181

L1D UNIQUE REGIONS ACCESSED: 0
L1D REGIONS CONFLICTS: 0
L1D Cross Page Prefetch Requests: 0
L1D Same Page Prefetch Requests: 1905589
L1D ROI Sum of L1D PQ occupancy: 16834588
L1D PREFETCHES PUSHED FROM L2C: 0
L1I TOTAL     ACCESS:   14639806  HIT:   11534021  MISS:    3105785  HIT %:    78.7853  MISS %:    21.2147   MPKI: 62.1157
L1I LOAD      ACCESS:    9765085  HIT:    9745119  MISS:      19966  HIT %:    99.7955  MISS %:   0.204463   MPKI: 0.39932
L1I PREFETCH  ACCESS:    4874721  HIT:    1788902  MISS:    3085819  HIT %:    36.6975  MISS %:    63.3025   MPKI: 61.7164
L1I PREFETCH  REQUESTED:    5138084  ISSUED:    5132939  USEFUL:    2593305  USELESS:     492560
L1I USEFUL LOAD PREFETCHES:    2593305 PREFETCH ISSUED TO LOWER LEVEL:    3092279  ACCURACY: 83.8639
L1I TIMELY PREFETCHES:    2593305 LATE PREFETCHES: 6183 DROPPED PREFETCHES: 0
L1I PREFETCHES SAME FILL-ORIGIN LEVEL: 3092279 DIFFERENT FILL-ORIGIN LEVEL: 0
L1I AVERAGE MISS LATENCY: 118880 cycles
L1I RQ	ACCESS:   14067260	FORWARD:          0	MERGED:    4298005	TO_CACHE:    9769255
L1I PQ	ACCESS:    5132939	FORWARD:          0	MERGED:     189268	TO_CACHE:    4943671

BTB TOTAL     ACCESS:    5333119  HIT:    5067879  MISS:     265240  HIT %:    95.0266  MISS %:    4.97345   MPKI: 5.3048
BTB BRANCH_DIRECT_JUMP	ACCESS:     458219  HIT:     456490  MISS:       1729
BTB BRANCH_INDIRECT	ACCESS:      49088  HIT:      48920  MISS:        168
BTB BRANCH_CONDITIONAL	ACCESS:    3001358  HIT:    2995715  MISS:       5643
BTB BRANCH_DIRECT_CALL	ACCESS:     745129  HIT:     741537  MISS:       3592
BTB BRANCH_INDIRECT_CALL	ACCESS:     167106  HIT:     138209  MISS:      28897
BTB BRANCH_RETURN	ACCESS:     912219  HIT:     687008  MISS:     225211
BTB BRANCH_OTHER ACCESS:          0  HIT:          0  MISS:          0

L2C TOTAL     ACCESS:    6323926  HIT:    4432025  MISS:    1891901  HIT %:    70.0834  MISS %:    29.9166   MPKI: 37.838
L2C LOAD      ACCESS:     555059  HIT:     206599  MISS:     348460  HIT %:    37.2211  MISS %:    62.7789   MPKI: 6.9692
L2C DATA LOAD MPKI: 6.87098
L2C INSTRUCTION LOAD MPKI: 0.09822
L2C RFO       ACCESS:     959075  HIT:      35332  MISS:     923743  HIT %:    3.68397  MISS %:     96.316   MPKI: 18.4749
L2C PREFETCH  ACCESS:    3617126  HIT:    3052645  MISS:     564481  HIT %:    84.3942  MISS %:    15.6058   MPKI: 11.2896
L2C DATA PREFETCH MPKI: 8.15492
L2C INSTRUCTION PREFETCH MPKI: 3.1347
L2C WRITEBACK ACCESS:    1155823  HIT:    1120920  MISS:      34903  HIT %:    96.9802  MISS %:    3.01975   MPKI: 0.69806
L2C LOAD TRANSLATION ACCESS:      35682  HIT:      16237  MISS:      19445  HIT %:    45.5047  MISS %:    54.4953   MPKI: 0.3889
L2C TRANSLATION FROM L1D PREFETCHER ACCESS:       1161  HIT:        292  MISS:        869  HIT %:    25.1507  MISS %:    74.8493   MPKI: 0.01738
L2C PREFETCH  REQUESTED:          0  ISSUED:          0  USEFUL:       7048  USELESS:     557863
L2C USEFUL LOAD PREFETCHES:       7048 PREFETCH ISSUED TO LOWER LEVEL:     564481  ACCURACY: 1.24858
L2C TIMELY PREFETCHES:       7048 LATE PREFETCHES: 0 DROPPED PREFETCHES: 0
L2C PREFETCHES SAME FILL-ORIGIN LEVEL: 0 DIFFERENT FILL-ORIGIN LEVEL: 0
L2C AVERAGE MISS LATENCY: 158.832 cycles
L2C RQ	ACCESS:    1551010	FORWARD:          0	MERGED:          0	TO_CACHE:    1550977
L2C WQ	ACCESS:    1155823	FORWARD:         35	MERGED:          0	TO_CACHE:    1155823
L2C PQ	ACCESS:    3617128	FORWARD:          0	MERGED:          0	TO_CACHE:    3617126

L2C Instructions Evicting Data 146840
L2C Translations Evicting Data 18444
L2C Data Evicting Data 1513555
L2C Instructions Evicting Instructions 13304
L2C Translations Evicting Instructions 1607
L2C Data Evicting Instructions 143242
L2C Instructions Evicting Translations 1502
L2C Translations Evicting Translations 263
L2C Data Evicting Translations 18241
L2C Dense regions hint from L2: 0
PSCL5 TOTAL     ACCESS:      33224  HIT:      33224  MISS:          0  HIT %:        100  MISS %:          0   MPKI: 0
PSCL5 LOAD TRANSLATION ACCESS:      32423  HIT:      32423  MISS:          0  HIT %:        100  MISS %:          0   MPKI: 0
PSCL5 TRANSLATION FROM L1D PREFETCHER ACCESS:        801  HIT:        801  MISS:          0  HIT %:        100  MISS %:          0   MPKI: 0
PSCL5 PREFETCH  REQUESTED:          0  ISSUED:          0  USEFUL:          0  USELESS:          0
PSCL5 USEFUL LOAD PREFETCHES:          0 PREFETCH ISSUED TO LOWER LEVEL:          0  ACCURACY: -nan
PSCL5 TIMELY PREFETCHES:          0 LATE PREFETCHES: 0 DROPPED PREFETCHES: 0
PSCL5 PREFETCHES SAME FILL-ORIGIN LEVEL: 0 DIFFERENT FILL-ORIGIN LEVEL: 0

PSCL4 TOTAL     ACCESS:      32338  HIT:      32224  MISS:        114  HIT %:    99.6475  MISS %:   0.352526   MPKI: 0.00228
PSCL4 LOAD TRANSLATION ACCESS:      31576  HIT:      31462  MISS:        114  HIT %:     99.639  MISS %:   0.361034   MPKI: 0.00228
PSCL4 TRANSLATION FROM L1D PREFETCHER ACCESS:        762  HIT:        762  MISS:          0  HIT %:        100  MISS %:          0   MPKI: 0
PSCL4 PREFETCH  REQUESTED:          0  ISSUED:          0  USEFUL:          0  USELESS:          0
PSCL4 USEFUL LOAD PREFETCHES:          0 PREFETCH ISSUED TO LOWER LEVEL:          0  ACCURACY: -nan
PSCL4 TIMELY PREFETCHES:          0 LATE PREFETCHES: 0 DROPPED PREFETCHES: 0
PSCL4 PREFETCHES SAME FILL-ORIGIN LEVEL: 0 DIFFERENT FILL-ORIGIN LEVEL: 0

PSCL3 TOTAL     ACCESS:      32776  HIT:      32662  MISS:        114  HIT %:    99.6522  MISS %:   0.347815   MPKI: 0.00228
PSCL3 LOAD TRANSLATION ACCESS:      32014  HIT:      31900  MISS:        114  HIT %:    99.6439  MISS %:   0.356094   MPKI: 0.00228
PSCL3 TRANSLATION FROM L1D PREFETCHER ACCESS:        762  HIT:        762  MISS:          0  HIT %:        100  MISS %:          0   MPKI: 0
PSCL3 PREFETCH  REQUESTED:          0  ISSUED:          0  USEFUL:          0  USELESS:          0
PSCL3 USEFUL LOAD PREFETCHES:          0 PREFETCH ISSUED TO LOWER LEVEL:          0  ACCURACY: -nan
PSCL3 TIMELY PREFETCHES:          0 LATE PREFETCHES: 0 DROPPED PREFETCHES: 0
PSCL3 PREFETCHES SAME FILL-ORIGIN LEVEL: 0 DIFFERENT FILL-ORIGIN LEVEL: 0

PSCL2 TOTAL     ACCESS:      33224  HIT:      29810  MISS:       3414  HIT %:    89.7243  MISS %:    10.2757   MPKI: 0.06828
PSCL2 LOAD TRANSLATION ACCESS:      32719  HIT:      29305  MISS:       3414  HIT %:    89.5657  MISS %:    10.4343   MPKI: 0.06828
PSCL2 TRANSLATION FROM L1D PREFETCHER ACCESS:        505  HIT:        505  MISS:          0  HIT %:        100  MISS %:          0   MPKI: 0
PSCL2 PREFETCH  REQUESTED:          0  ISSUED:          0  USEFUL:          0  USELESS:          0
PSCL2 USEFUL LOAD PREFETCHES:          0 PREFETCH ISSUED TO LOWER LEVEL:          0  ACCURACY: -nan
PSCL2 TIMELY PREFETCHES:          0 LATE PREFETCHES: 0 DROPPED PREFETCHES: 0
PSCL2 PREFETCHES SAME FILL-ORIGIN LEVEL: 0 DIFFERENT FILL-ORIGIN LEVEL: 0

LLC TOTAL     ACCESS:    2932920  HIT:    1147393  MISS:    1785527  HIT %:    39.1212  MISS %:    60.8788   MPKI: 35.7105
LLC LOAD      ACCESS:     348458  HIT:     279812  MISS:      68646  HIT %:    80.3001  MISS %:    19.6999   MPKI: 1.37292
LLC RFO       ACCESS:     923743  HIT:     255920  MISS:     667823  HIT %:    27.7047  MISS %:    72.2953   MPKI: 13.3565
LLC PREFETCH  ACCESS:     564481  HIT:     189706  MISS:     374775  HIT %:    33.6072  MISS %:    66.3928   MPKI: 7.4955
LLC WRITEBACK ACCESS:    1075924  HIT:     408134  MISS:     667790  HIT %:    37.9333  MISS %:    62.0667   MPKI: 13.3558
LLC LOAD TRANSLATION ACCESS:      19445  HIT:      13522  MISS:       5923  HIT %:    69.5397  MISS %:    30.4603   MPKI: 0.11846
LLC TRANSLATION FROM L1D PREFETCHER ACCESS:        869  HIT:        299  MISS:        570  HIT %:    34.4074  MISS %:    65.5926   MPKI: 0.0114
LLC PREFETCH  REQUESTED:          0  ISSUED:          0  USEFUL:        552  USELESS:     375165
LLC USEFUL LOAD PREFETCHES:        552 PREFETCH ISSUED TO LOWER LEVEL:     374775  ACCURACY: 0.147288
LLC TIMELY PREFETCHES:        552 LATE PREFETCHES: 0 DROPPED PREFETCHES: 0
LLC PREFETCHES SAME FILL-ORIGIN LEVEL: 0 DIFFERENT FILL-ORIGIN LEVEL: 0
LLC AVERAGE MISS LATENCY: 135.624 cycles
LLC RQ	ACCESS:    1292517	FORWARD:          0	MERGED:          0	TO_CACHE:    1292515
LLC WQ	ACCESS:    1075924	FORWARD:          2	MERGED:          0	TO_CACHE:    1075924
LLC PQ	ACCESS:     564481	FORWARD:          0	MERGED:          0	TO_CACHE:     564481

LLC Dense regions hint to LLC: 0

RAW hits: 1355506
Loads Generated: 12404873
Loads sent to L1D: 11049366
Stores Generated: 8713494
Stores sent to L1D: 8713551
Major fault: 0 Minor fault: 22230
Allocated PAGES: 22230
I-Shadow cache 408 bytes
Touched + WorthPF tables 6144 bytes 
MMA filter 174 bytes 
FNL filter 272 bytes 
TOTAL PREFETCHER STORAGE SIZE: 25174 bytes
CPU 0 L1I next line prefetcher final stats

stream: 
stream:times selected: 3547908
stream:pref_filled: 1064921
stream:pref_useful: 639304
stream:pref_late: 11604
stream:misses: 9392
stream:misses_by_poll: 0

CS: 
CS:times selected: 3260089
CS:pref_filled: 6338
CS:pref_useful: 6045
CS:pref_late: 782
CS:misses: 14493
CS:misses_by_poll: 11

CPLX: 
CPLX:times selected: 284698
CPLX:pref_filled: 15273
CPLX:pref_useful: 1316
CPLX:pref_late: 284
CPLX:misses: 33549
CPLX:misses_by_poll: 5

NL_L1: 
NL:times selected: 901
NL:pref_filled: 278
NL:pref_useful: 26
NL:pref_late: 11
NL:misses: 217
NL:misses_by_poll: 0

total selections: 7093596
total_filled: 516254
total_useful: 320020
total_late: 13233
total_polluted: 16
total_misses_after_warmup: 161085
conflicts: 423855
Degree Incremented Times: 37015
Degree Decremented Times: 40541

L1 IP Table Write Accesses: 2319458
L1 IP Table Read Accesses: 1895603
L1 RST Write Accesses: 1706820
L1 RST Read Accesses: 3413640
L1 CSPT Write Accesses: 1706820
L1 CSPT Read Accesses: 1818399
L1 RR Filter Tag Write Accesses: 919270
L1 RR Filter Tag Read Accesses: 421981469
L1 IP Table Tag Write Accesses: 2792101
L1 IP Table Tag Read Accesses: 2792101
L1 RST Tag Write Accesses: 0
L1 RST Tag Read Accesses: 15516722
L1 RR Filter Write Accesses: 0
L1 RR Filter Read Accesses: 14514107
test: 167857

DRAM Statistics
 CHANNEL 0
 RQ ROW_BUFFER_HIT:     486726  ROW_BUFFER_MISS:     630919
 DBUS_CONGESTED:        537
 WQ ROW_BUFFER_HIT:     153831  ROW_BUFFER_MISS:     549713  FULL:      15267

 AVG_CONGESTED_CYCLE: 3
 All warmup complete: 2
Channel 0 Bank busy for read cycles: 0
Channel 0 Bank busy for write cycles: 0
Channel 0
Rank 0
0banks busy for read cycles: 25153536
0banks busy for write cycles: 53832
1banks busy for read cycles: 13243827
1banks busy for write cycles: 7682779
2banks busy for read cycles: 9850979
2banks busy for write cycles: 3440511
3banks busy for read cycles: 4284011
3banks busy for write cycles: 1881886
4banks busy for read cycles: 3058855
4banks busy for write cycles: 1361911
5banks busy for read cycles: 1191833
5banks busy for write cycles: 1206958
6banks busy for read cycles: 1444254
6banks busy for write cycles: 1189094
7banks busy for read cycles: 1936829
7banks busy for write cycles: 1859204
8banks busy for read cycles: 4328928
8banks busy for write cycles: 8810440

CPU 0 Branch Prediction Accuracy: 99.712% MPKI: 0.47638 Average ROB Occupancy at Mispredict: 94.6874
Branch types
NOT_BRANCH: 41729379 83.4588%
BRANCH_DIRECT_JUMP: 458219 0.916438%
BRANCH_INDIRECT: 49088 0.098176%
BRANCH_CONDITIONAL: 5938510 11.877%
BRANCH_DIRECT_CALL: 745129 1.49026%
BRANCH_INDIRECT_CALL: 167106 0.334212%
BRANCH_RETURN: 912219 1.82444%
BRANCH_OTHER: 0 0%

DRAM PAGES: 1048576
Allocated PAGES: 22230
