
*** ChampSim Multicore Out-of-Order Simulator ***

Warmup Instructions: 50000000
Simulation Instructions: 50000000
Number of CPUs: 1
LLC sets: 2048
LLC ways: 16
Off-chip DRAM Size: 4096 MB Channels: 1 Width: 64-bit Data Rate: 6400 MT/s
CPU 0 runs ../IPC-traces//server_022.champsimtrace.xz
.xz
NUM_OF_IPS_IN_CRITICAL_IP_TRAINING: 64
NUM_OF_CRITICAL_IP_TRAINING_TABLE_WAYS: 2
NUM_OF_CRITICAL_IP_TRAINING_TABLE_SETS: 32
WOBBLY_CRITICAL_IP_CACHE_SETS: 32
WOBBLY_CRITICAL_IP_CACHE_WAYS: 4
BTB has LRU replacement policy
ITLB has LRU replacement policy
DTLB has LRU replacement policy
STLB has LRU replacement policy
CPU 0 L1I next line prefetcher
L1I has LRU replacement policy
IP Table Entries: 64
L1D has LRU replacement policy
Initialize SRRIP state for L2C
Initialize DRRIP state for LLC
Heartbeat CPU 0 instructions: 10000001 cycles: 3147446 heartbeat IPC: 3.17718 cumulative IPC: 3.17718 (Simulation time: 0 hr 5 min 16 sec) 
Heartbeat CPU 0 instructions: 20000000 cycles: 6305254 heartbeat IPC: 3.16675 cumulative IPC: 3.17196 (Simulation time: 0 hr 10 min 22 sec) 
Heartbeat CPU 0 instructions: 30000000 cycles: 9452750 heartbeat IPC: 3.17713 cumulative IPC: 3.17368 (Simulation time: 0 hr 15 min 15 sec) 
Heartbeat CPU 0 instructions: 40000003 cycles: 12611445 heartbeat IPC: 3.16587 cumulative IPC: 3.17172 (Simulation time: 0 hr 19 min 46 sec) 
Heartbeat CPU 0 instructions: 50000003 cycles: 15760425 heartbeat IPC: 3.17563 cumulative IPC: 3.1725 (Simulation time: 0 hr 24 min 5 sec) 

Warmup complete CPU 0 instructions: 50000003 cycles: 15760425 (Simulation time: 0 hr 24 min 5 sec) 

% increase in all ip prefetch 473.2
% increase in all ip prefetch 11.4872
% increase in all ip prefetch 18.0819
% increase in all ip prefetch 10.5277
% increase in all ip prefetch -3.54251
Heartbeat CPU 0 instructions: 60000000 cycles: 35429205 heartbeat IPC: 0.50842 cumulative IPC: 0.50842 (Simulation time: 0 hr 29 min 8 sec) 
Heartbeat CPU 0 instructions: 70000001 cycles: 55051277 heartbeat IPC: 0.50963 cumulative IPC: 0.509024 (Simulation time: 0 hr 34 min 21 sec) 
Heartbeat CPU 0 instructions: 80000000 cycles: 73141115 heartbeat IPC: 0.552796 cumulative IPC: 0.522824 (Simulation time: 0 hr 39 min 17 sec) 
Heartbeat CPU 0 instructions: 90000003 cycles: 91368339 heartbeat IPC: 0.54863 cumulative IPC: 0.529045 (Simulation time: 0 hr 44 min 45 sec) 
Heartbeat CPU 0 instructions: 100000000 cycles: 109495683 heartbeat IPC: 0.551653 cumulative IPC: 0.533417 (Simulation time: 0 hr 50 min 58 sec) 
Finished CPU 0 instructions: 50000001 cycles: 93735259 cumulative IPC: 0.533417 (Simulation time: 0 hr 50 min 58 sec) 

ChampSim completed all CPUs

Region of Interest Statistics

CPU 0 cumulative IPC: 0.533417 instructions: 50000001 cycles: 93735259

CPU 0 Average Load ROB stall cycles: 2.88513e+07
CPU 0 Fraction of times ROB stalled by Loads: 45.3566
CPU 0 Percentage of Load stall cycles in Total stall cycles: 2.70842e+08
Issued all: 50997110
Issued LT all: 45704372
rob_not_full_when_issued_lt_all: 16864839
Issued LT one: 39874749
rob_not_full_when_issued_lt_one: 12827667
 Total stall cycles: 76039473
 Total load stall cycles: 205947030943200
CPU 0 NUM of IPS identified critical: 0
CPU 0 Num of Load IPs stalling ROB: 4817
Threshold modification factor: -4
Max PIST entries: 64
Min PIST entries: 0
Avg PIST entries: 32
Trouble in retire width: 0.798833
MaC = Marked as critical.
lt_50_percent_before_Mac: 0
gt_90_percent_before_Mac: 0
gt_75_percent_before_Mac: 0
gt_50_percent_before_Mac: 0
stall_proportion_bin_same_before_after: 0
stall_proportion_bin_lower_before_after: 0
stall_proportion_bin_upper_before_after: 0
average_stall_proportion_before: -nan
average_stall_proportion_after: -nan
Critical IP stalls, total frequency: 0
Non-critical IP stalls, total frequency: 3237655
Total Freq all stalling IPs: 3237655
stat_90_percent_critical_ip_stalls_freq: 2914875
stat_90_percent_non_critical_ip_stalls_freq: 322780
Critical_IP_ROB_Stalls_Bucket_0: 0
Non-critical_IP_ROB_Stalls_Bucket_0: 504589
Critical_IP_ROB_Stalls_Bucket_1: 0
Non-critical_IP_ROB_Stalls_Bucket_1: 618040
Critical_IP_ROB_Stalls_Bucket_2: 0
Non-critical_IP_ROB_Stalls_Bucket_2: 422026
Critical_IP_ROB_Stalls_Bucket_3: 0
Non-critical_IP_ROB_Stalls_Bucket_3: 262235
Critical_IP_ROB_Stalls_Bucket_4: 0
Non-critical_IP_ROB_Stalls_Bucket_4: 168750
Critical_IP_ROB_Stalls_Bucket_5: 0
Non-critical_IP_ROB_Stalls_Bucket_5: 151022
Critical_IP_ROB_Stalls_Bucket_6: 0
Non-critical_IP_ROB_Stalls_Bucket_6: 1110993
0 => IPs accounting for >50 percent of stalls, 1 => 55, 2 => 60, 3 => 65 and so on till 90.
percent50: 50.2915 num IPs:  12
percent55: 55.0864 num IPs: 30
percent60: 60.028 num IPs: 61
percent65: 65.0155 num IPs: 107
percent70: 70.0208 num IPs: 174
percent75: 75.0649 num IPs: 242
percent80: 80.0432 num IPs: 311
percent85: 85.0526 num IPs: 388
percent90: 90.0306 num IPs: 486
Critical_ROB_Stalls_Percent_0_Bucket_0: 53673
Non-critical_ROB_Stalls_Percent_0_Bucket_0: 450916
Critical_ROB_Stalls_Percent_0_Bucket_1: 113924
Non-critical_ROB_Stalls_Percent_0_Bucket_1: 504116
Critical_ROB_Stalls_Percent_0_Bucket_2: 119236
Non-critical_ROB_Stalls_Percent_0_Bucket_2: 302790
Critical_ROB_Stalls_Percent_0_Bucket_3: 134111
Non-critical_ROB_Stalls_Percent_0_Bucket_3: 128124
Critical_ROB_Stalls_Percent_0_Bucket_4: 111481
Non-critical_ROB_Stalls_Percent_0_Bucket_4: 57269
Critical_ROB_Stalls_Percent_0_Bucket_5: 104266
Non-critical_ROB_Stalls_Percent_0_Bucket_5: 46756
Critical_ROB_Stalls_Percent_0_Bucket_6: 991576
Non-critical_ROB_Stalls_Percent_0_Bucket_6: 119417
Critical_ROB_Stalls_Percent_1_Bucket_0: 126432
Non-critical_ROB_Stalls_Percent_1_Bucket_0: 378157
Critical_ROB_Stalls_Percent_1_Bucket_1: 157754
Non-critical_ROB_Stalls_Percent_1_Bucket_1: 460286
Critical_ROB_Stalls_Percent_1_Bucket_2: 138203
Non-critical_ROB_Stalls_Percent_1_Bucket_2: 283823
Critical_ROB_Stalls_Percent_1_Bucket_3: 141166
Non-critical_ROB_Stalls_Percent_1_Bucket_3: 121069
Critical_ROB_Stalls_Percent_1_Bucket_4: 116165
Non-critical_ROB_Stalls_Percent_1_Bucket_4: 52585
Critical_ROB_Stalls_Percent_1_Bucket_5: 107446
Non-critical_ROB_Stalls_Percent_1_Bucket_5: 43576
Critical_ROB_Stalls_Percent_1_Bucket_6: 996341
Non-critical_ROB_Stalls_Percent_1_Bucket_6: 114652
Critical_ROB_Stalls_Percent_2_Bucket_0: 174867
Non-critical_ROB_Stalls_Percent_2_Bucket_0: 329722
Critical_ROB_Stalls_Percent_2_Bucket_1: 194999
Non-critical_ROB_Stalls_Percent_2_Bucket_1: 423041
Critical_ROB_Stalls_Percent_2_Bucket_2: 168092
Non-critical_ROB_Stalls_Percent_2_Bucket_2: 253934
Critical_ROB_Stalls_Percent_2_Bucket_3: 147313
Non-critical_ROB_Stalls_Percent_2_Bucket_3: 114922
Critical_ROB_Stalls_Percent_2_Bucket_4: 120798
Non-critical_ROB_Stalls_Percent_2_Bucket_4: 47952
Critical_ROB_Stalls_Percent_2_Bucket_5: 116111
Non-critical_ROB_Stalls_Percent_2_Bucket_5: 34911
Critical_ROB_Stalls_Percent_2_Bucket_6: 1021320
Non-critical_ROB_Stalls_Percent_2_Bucket_6: 89673
Critical_ROB_Stalls_Percent_3_Bucket_0: 217274
Non-critical_ROB_Stalls_Percent_3_Bucket_0: 287315
Critical_ROB_Stalls_Percent_3_Bucket_1: 237548
Non-critical_ROB_Stalls_Percent_3_Bucket_1: 380492
Critical_ROB_Stalls_Percent_3_Bucket_2: 201305
Non-critical_ROB_Stalls_Percent_3_Bucket_2: 220721
Critical_ROB_Stalls_Percent_3_Bucket_3: 157878
Non-critical_ROB_Stalls_Percent_3_Bucket_3: 104357
Critical_ROB_Stalls_Percent_3_Bucket_4: 126025
Non-critical_ROB_Stalls_Percent_3_Bucket_4: 42725
Critical_ROB_Stalls_Percent_3_Bucket_5: 121856
Non-critical_ROB_Stalls_Percent_3_Bucket_5: 29166
Critical_ROB_Stalls_Percent_3_Bucket_6: 1043093
Non-critical_ROB_Stalls_Percent_3_Bucket_6: 67900
Critical_ROB_Stalls_Percent_4_Bucket_0: 232061
Non-critical_ROB_Stalls_Percent_4_Bucket_0: 272528
Critical_ROB_Stalls_Percent_4_Bucket_1: 295024
Non-critical_ROB_Stalls_Percent_4_Bucket_1: 323016
Critical_ROB_Stalls_Percent_4_Bucket_2: 239865
Non-critical_ROB_Stalls_Percent_4_Bucket_2: 182161
Critical_ROB_Stalls_Percent_4_Bucket_3: 179222
Non-critical_ROB_Stalls_Percent_4_Bucket_3: 83013
Critical_ROB_Stalls_Percent_4_Bucket_4: 139907
Non-critical_ROB_Stalls_Percent_4_Bucket_4: 28843
Critical_ROB_Stalls_Percent_4_Bucket_5: 132281
Non-critical_ROB_Stalls_Percent_4_Bucket_5: 18741
Critical_ROB_Stalls_Percent_4_Bucket_6: 1048670
Non-critical_ROB_Stalls_Percent_4_Bucket_6: 62323
Critical_ROB_Stalls_Percent_5_Bucket_0: 262475
Non-critical_ROB_Stalls_Percent_5_Bucket_0: 242114
Critical_ROB_Stalls_Percent_5_Bucket_1: 358060
Non-critical_ROB_Stalls_Percent_5_Bucket_1: 259980
Critical_ROB_Stalls_Percent_5_Bucket_2: 280312
Non-critical_ROB_Stalls_Percent_5_Bucket_2: 141714
Critical_ROB_Stalls_Percent_5_Bucket_3: 200613
Non-critical_ROB_Stalls_Percent_5_Bucket_3: 61622
Critical_ROB_Stalls_Percent_5_Bucket_4: 146333
Non-critical_ROB_Stalls_Percent_5_Bucket_4: 22417
Critical_ROB_Stalls_Percent_5_Bucket_5: 132528
Non-critical_ROB_Stalls_Percent_5_Bucket_5: 18494
Critical_ROB_Stalls_Percent_5_Bucket_6: 1050017
Non-critical_ROB_Stalls_Percent_5_Bucket_6: 60976
Critical_ROB_Stalls_Percent_6_Bucket_0: 308907
Non-critical_ROB_Stalls_Percent_6_Bucket_0: 195682
Critical_ROB_Stalls_Percent_6_Bucket_1: 422890
Non-critical_ROB_Stalls_Percent_6_Bucket_1: 195150
Critical_ROB_Stalls_Percent_6_Bucket_2: 305367
Non-critical_ROB_Stalls_Percent_6_Bucket_2: 116659
Critical_ROB_Stalls_Percent_6_Bucket_3: 209401
Non-critical_ROB_Stalls_Percent_6_Bucket_3: 52834
Critical_ROB_Stalls_Percent_6_Bucket_4: 149661
Non-critical_ROB_Stalls_Percent_6_Bucket_4: 19089
Critical_ROB_Stalls_Percent_6_Bucket_5: 136028
Non-critical_ROB_Stalls_Percent_6_Bucket_5: 14994
Critical_ROB_Stalls_Percent_6_Bucket_6: 1059264
Non-critical_ROB_Stalls_Percent_6_Bucket_6: 51729
Critical_ROB_Stalls_Percent_7_Bucket_0: 350793
Non-critical_ROB_Stalls_Percent_7_Bucket_0: 153796
Critical_ROB_Stalls_Percent_7_Bucket_1: 466843
Non-critical_ROB_Stalls_Percent_7_Bucket_1: 151197
Critical_ROB_Stalls_Percent_7_Bucket_2: 347978
Non-critical_ROB_Stalls_Percent_7_Bucket_2: 74048
Critical_ROB_Stalls_Percent_7_Bucket_3: 225630
Non-critical_ROB_Stalls_Percent_7_Bucket_3: 36605
Critical_ROB_Stalls_Percent_7_Bucket_4: 155266
Non-critical_ROB_Stalls_Percent_7_Bucket_4: 13484
Critical_ROB_Stalls_Percent_7_Bucket_5: 138211
Non-critical_ROB_Stalls_Percent_7_Bucket_5: 12811
Critical_ROB_Stalls_Percent_7_Bucket_6: 1068984
Non-critical_ROB_Stalls_Percent_7_Bucket_6: 42009
Critical_ROB_Stalls_Percent_8_Bucket_0: 405697
Non-critical_ROB_Stalls_Percent_8_Bucket_0: 98892
Critical_ROB_Stalls_Percent_8_Bucket_1: 519624
Non-critical_ROB_Stalls_Percent_8_Bucket_1: 98416
Critical_ROB_Stalls_Percent_8_Bucket_2: 368842
Non-critical_ROB_Stalls_Percent_8_Bucket_2: 53184
Critical_ROB_Stalls_Percent_8_Bucket_3: 234631
Non-critical_ROB_Stalls_Percent_8_Bucket_3: 27604
Critical_ROB_Stalls_Percent_8_Bucket_4: 158383
Non-critical_ROB_Stalls_Percent_8_Bucket_4: 10367
Critical_ROB_Stalls_Percent_8_Bucket_5: 143591
Non-critical_ROB_Stalls_Percent_8_Bucket_5: 7431
Critical_ROB_Stalls_Percent_8_Bucket_6: 1084107
Non-critical_ROB_Stalls_Percent_8_Bucket_6: 26886
Average ROB occupancy Load Stall Begin: 184.685
Average ROB occupancy Load Stall End: 193.055
Min ROB occupancy Load Stall Begin: 1
Max ROB occupancy Load Stall Begin: 352
Min ROB occupancy Load Stall End: 1
Max ROB occupancy Load Stall End: 352
Average ROB occupancy Critical Load Stall Begin: -nan
Average ROB occupancy Critical Load Stall End: -nan
Min ROB occupancy Critical Load Stall Begin: 400
Max ROB occupancy Critical Load Stall Begin: 0
Min ROB occupancy Critical Load Stall End: 400
Max ROB occupancy Critical Load Stall End: 0
 ROB Load Stall Begin Bucket Count 0: 714250
 ROB Load Stall End Bucket Count 0: 504589
 ROB Critical Load Stall Begin Bucket Count 0: 0
 ROB Critical Load Stall End Bucket Count 0: 0
 ROB Load Stall Begin Bucket Count 1: 536791
 ROB Load Stall End Bucket Count 1: 618040
 ROB Critical Load Stall Begin Bucket Count 1: 0
 ROB Critical Load Stall End Bucket Count 1: 0
 ROB Load Stall Begin Bucket Count 2: 375508
 ROB Load Stall End Bucket Count 2: 422026
 ROB Critical Load Stall Begin Bucket Count 2: 0
 ROB Critical Load Stall End Bucket Count 2: 0
 ROB Load Stall Begin Bucket Count 3: 221214
 ROB Load Stall End Bucket Count 3: 262235
 ROB Critical Load Stall Begin Bucket Count 3: 0
 ROB Critical Load Stall End Bucket Count 3: 0
 ROB Load Stall Begin Bucket Count 4: 155183
 ROB Load Stall End Bucket Count 4: 168750
 ROB Critical Load Stall Begin Bucket Count 4: 0
 ROB Critical Load Stall End Bucket Count 4: 0
 ROB Load Stall Begin Bucket Count 5: 152104
 ROB Load Stall End Bucket Count 5: 151022
 ROB Critical Load Stall Begin Bucket Count 5: 0
 ROB Critical Load Stall End Bucket Count 5: 0
 ROB Load Stall Begin Bucket Count 6: 1082605
 ROB Load Stall End Bucket Count 6: 1110993
 ROB Critical Load Stall Begin Bucket Count 6: 0
 ROB Critical Load Stall End Bucket Count 6: 0
PIST Tag Read Accesses: 3267400
PIST Read Accesses: 1633700
PIST Tag Write Accesses: 3267400
PIST Write Accesses: 1633700
Criticality detector called times: 1694043
Max global_stall_cycles_count: 3954018
Threshold Modified: 4 times, factor: -4
Sturdy critical IP cache stats: 
 Unused entries: 0
CIC Tag Read Accesses: 0
CIC Read Accesses: 0
CIC Tag Write Accesses: 0
CIC Write Accesses: 0
Wobbly critical IP cache stats: 
 Unused entries: 93
CIC Tag Read Accesses: 88171325
CIC Read Accesses: 0
CIC Tag Write Accesses: 1773
CIC Write Accesses: 0
ITLB TOTAL     ACCESS:   10351036  HIT:    9868499  MISS:     482537  HIT %:    95.3383  MISS %:    4.66173   MPKI: 9.65074
ITLB LOAD TRANSLATION ACCESS:    8415781  HIT:    8403561  MISS:      12220  HIT %:    99.8548  MISS %:   0.145203   MPKI: 0.2444
ITLB TRANSLATION FROM L1D PREFETCHER ACCESS:    1935255  HIT:    1464938  MISS:     470317  HIT %:    75.6974  MISS %:    24.3026   MPKI: 9.40634
ITLB PREFETCH  REQUESTED:          0  ISSUED:          0  USEFUL:     424933  USELESS:      45385
ITLB USEFUL LOAD PREFETCHES:     424933 PREFETCH ISSUED TO LOWER LEVEL:          0  ACCURACY: inf
ITLB TIMELY PREFETCHES:     424933 LATE PREFETCHES: 163 DROPPED PREFETCHES: 0
ITLB PREFETCHES SAME FILL-ORIGIN LEVEL: 0 DIFFERENT FILL-ORIGIN LEVEL: 0
ITLB AVERAGE MISS LATENCY: 21322.5 cycles
ITLB RQ	ACCESS:   14924149	FORWARD:          0	MERGED:    4533918	TO_CACHE:   10390231

DTLB TOTAL     ACCESS:   10879284  HIT:   10468994  MISS:     410290  HIT %:    96.2287  MISS %:     3.7713   MPKI: 8.2058
DTLB LOAD TRANSLATION ACCESS:   10879284  HIT:   10468994  MISS:     410290  HIT %:    96.2287  MISS %:     3.7713   MPKI: 8.2058
DTLB PREFETCH  REQUESTED:          0  ISSUED:          0  USEFUL:          0  USELESS:          0
DTLB USEFUL LOAD PREFETCHES:          0 PREFETCH ISSUED TO LOWER LEVEL:          0  ACCURACY: -nan
DTLB TIMELY PREFETCHES:          0 LATE PREFETCHES: 0 DROPPED PREFETCHES: 0
DTLB PREFETCHES SAME FILL-ORIGIN LEVEL: 0 DIFFERENT FILL-ORIGIN LEVEL: 0
DTLB AVERAGE MISS LATENCY: 16.984 cycles
DTLB RQ	ACCESS:   16216850	FORWARD:          0	MERGED:    5252776	TO_CACHE:   10964074

STLB TOTAL     ACCESS:    1493690  HIT:    1474144  MISS:      19546  HIT %:    98.6914  MISS %:    1.30857   MPKI: 0.39092
STLB LOAD TRANSLATION ACCESS:     422347  HIT:     403174  MISS:      19173  HIT %:    95.4604  MISS %:    4.53963   MPKI: 0.38346
STLB TRANSLATION FROM L1D PREFETCHER ACCESS:    1071343  HIT:    1070970  MISS:        373  HIT %:    99.9652  MISS %:  0.0348161   MPKI: 0.00746
STLB PREFETCH  REQUESTED:          0  ISSUED:          0  USEFUL:        161  USELESS:        212
STLB USEFUL LOAD PREFETCHES:        161 PREFETCH ISSUED TO LOWER LEVEL:          0  ACCURACY: inf
STLB TIMELY PREFETCHES:        161 LATE PREFETCHES: 0 DROPPED PREFETCHES: 0
STLB PREFETCHES SAME FILL-ORIGIN LEVEL: 0 DIFFERENT FILL-ORIGIN LEVEL: 0
STLB AVERAGE MISS LATENCY: 174.855 cycles
STLB RQ	ACCESS:    1534513	FORWARD:          0	MERGED:      40823	TO_CACHE:    1493690

STLB Hit, L1D data hit: 0
STLB Hit, L2C data hit: 0
STLB Hit, LLC data hit: 0
STLB Hit, LLC data miss: 0
STLB STLB hints to L2: 0
L1D TOTAL     ACCESS:   14298977  HIT:   12446752  MISS:    1852225  HIT %:    87.0465  MISS %:    12.9535   MPKI: 37.0445
L1D LOAD      ACCESS:    7384582  HIT:    6812681  MISS:     571901  HIT %:    92.2555  MISS %:    7.74453   MPKI: 11.438
L1D RFO       ACCESS:    6358079  HIT:    5362891  MISS:     995188  HIT %:    84.3477  MISS %:    15.6523   MPKI: 19.9038
L1D PREFETCH  ACCESS:     556316  HIT:     271180  MISS:     285136  HIT %:    48.7457  MISS %:    51.2543   MPKI: 5.70272
L1D PREFETCH  REQUESTED:    1283374  ISSUED:    1283374  USEFUL:     253216  USELESS:      31921
L1D USEFUL LOAD PREFETCHES:     253216 PREFETCH ISSUED TO LOWER LEVEL:     364078  ACCURACY: 69.5499
L1D TIMELY PREFETCHES:     253216 LATE PREFETCHES: 78941 DROPPED PREFETCHES: 0
L1D PREFETCHES SAME FILL-ORIGIN LEVEL: 364078 DIFFERENT FILL-ORIGIN LEVEL: 0
L1D AVERAGE MISS LATENCY: 2.6328e+06 cycles
L1D RQ	ACCESS:   11067331	FORWARD:          0	MERGED:    3517358	TO_CACHE:    7425382
L1D WQ	ACCESS:    8887929	FORWARD:     124593	MERGED:      96461	TO_CACHE:    8791468
L1D PQ	ACCESS:     641688	FORWARD:          0	MERGED:          0	TO_CACHE:     641686

L1D UNIQUE REGIONS ACCESSED: 0
L1D REGIONS CONFLICTS: 0
L1D Cross Page Prefetch Requests: 0
L1D Same Page Prefetch Requests: 1320939
L1D ROI Sum of L1D PQ occupancy: 9543672
L1D PREFETCHES PUSHED FROM L2C: 0
L1I TOTAL     ACCESS:   14840810  HIT:   11654030  MISS:    3186780  HIT %:    78.5269  MISS %:    21.4731   MPKI: 63.7356
L1I LOAD      ACCESS:    9818820  HIT:    9801017  MISS:      17803  HIT %:    99.8187  MISS %:   0.181315   MPKI: 0.35606
L1I PREFETCH  ACCESS:    5021990  HIT:    1853013  MISS:    3168977  HIT %:     36.898  MISS %:     63.102   MPKI: 63.3795
L1I PREFETCH  REQUESTED:    5264152  ISSUED:    5253365  USEFUL:    2653815  USELESS:     515176
L1I USEFUL LOAD PREFETCHES:    2653815 PREFETCH ISSUED TO LOWER LEVEL:    3174214  ACCURACY: 83.6054
L1I TIMELY PREFETCHES:    2653815 LATE PREFETCHES: 5234 DROPPED PREFETCHES: 0
L1I PREFETCHES SAME FILL-ORIGIN LEVEL: 3174214 DIFFERENT FILL-ORIGIN LEVEL: 0
L1I AVERAGE MISS LATENCY: 106308 cycles
L1I RQ	ACCESS:   14119773	FORWARD:          0	MERGED:    4297376	TO_CACHE:    9822397
L1I PQ	ACCESS:    5253365	FORWARD:          0	MERGED:     151613	TO_CACHE:    5101752

BTB TOTAL     ACCESS:    5297027  HIT:    5037183  MISS:     259844  HIT %:    95.0945  MISS %:    4.90547   MPKI: 5.19688
BTB BRANCH_DIRECT_JUMP	ACCESS:     445734  HIT:     443706  MISS:       2028
BTB BRANCH_INDIRECT	ACCESS:      48875  HIT:      48765  MISS:        110
BTB BRANCH_CONDITIONAL	ACCESS:    2967685  HIT:    2961525  MISS:       6160
BTB BRANCH_DIRECT_CALL	ACCESS:     758262  HIT:     754131  MISS:       4131
BTB BRANCH_INDIRECT_CALL	ACCESS:     159103  HIT:     129311  MISS:      29792
BTB BRANCH_RETURN	ACCESS:     917368  HIT:     699745  MISS:     217623
BTB BRANCH_OTHER ACCESS:          0  HIT:          0  MISS:          0

L2C TOTAL     ACCESS:    6233146  HIT:    4420471  MISS:    1812675  HIT %:    70.9188  MISS %:    29.0812   MPKI: 36.2535
L2C LOAD      ACCESS:     505514  HIT:     173432  MISS:     332082  HIT %:    34.3081  MISS %:    65.6919   MPKI: 6.64164
L2C DATA LOAD MPKI: 6.56398
L2C INSTRUCTION LOAD MPKI: 0.07766
L2C RFO       ACCESS:     995184  HIT:      43164  MISS:     952020  HIT %:    4.33729  MISS %:    95.6627   MPKI: 19.0404
L2C PREFETCH  ACCESS:    3538288  HIT:    3063470  MISS:     474818  HIT %:    86.5806  MISS %:    13.4194   MPKI: 9.49636
L2C DATA PREFETCH MPKI: 6.40776
L2C INSTRUCTION PREFETCH MPKI: 3.0886
L2C WRITEBACK ACCESS:    1172538  HIT:    1128363  MISS:      44175  HIT %:    96.2325  MISS %:    3.76747   MPKI: 0.8835
L2C LOAD TRANSLATION ACCESS:      21076  HIT:      11916  MISS:       9160  HIT %:    56.5382  MISS %:    43.4618   MPKI: 0.1832
L2C TRANSLATION FROM L1D PREFETCHER ACCESS:        546  HIT:        126  MISS:        420  HIT %:    23.0769  MISS %:    76.9231   MPKI: 0.0084
L2C PREFETCH  REQUESTED:          0  ISSUED:          0  USEFUL:       3502  USELESS:     472029
L2C USEFUL LOAD PREFETCHES:       3502 PREFETCH ISSUED TO LOWER LEVEL:     474818  ACCURACY: 0.737546
L2C TIMELY PREFETCHES:       3502 LATE PREFETCHES: 0 DROPPED PREFETCHES: 0
L2C PREFETCHES SAME FILL-ORIGIN LEVEL: 0 DIFFERENT FILL-ORIGIN LEVEL: 0
L2C AVERAGE MISS LATENCY: 172.685 cycles
L2C RQ	ACCESS:    1522338	FORWARD:          0	MERGED:          0	TO_CACHE:    1522320
L2C WQ	ACCESS:    1172538	FORWARD:         19	MERGED:          0	TO_CACHE:    1172538
L2C PQ	ACCESS:    3538292	FORWARD:          0	MERGED:          0	TO_CACHE:    3538291

L2C Instructions Evicting Data 145749
L2C Translations Evicting Data 8750
L2C Data Evicting Data 1450173
L2C Instructions Evicting Instructions 11791
L2C Translations Evicting Instructions 781
L2C Data Evicting Instructions 141863
L2C Instructions Evicting Translations 773
L2C Translations Evicting Translations 49
L2C Data Evicting Translations 8571
L2C Dense regions hint from L2: 0
PSCL5 TOTAL     ACCESS:      19546  HIT:      19546  MISS:          0  HIT %:        100  MISS %:          0   MPKI: 0
PSCL5 LOAD TRANSLATION ACCESS:      19173  HIT:      19173  MISS:          0  HIT %:        100  MISS %:          0   MPKI: 0
PSCL5 TRANSLATION FROM L1D PREFETCHER ACCESS:        373  HIT:        373  MISS:          0  HIT %:        100  MISS %:          0   MPKI: 0
PSCL5 PREFETCH  REQUESTED:          0  ISSUED:          0  USEFUL:          0  USELESS:          0
PSCL5 USEFUL LOAD PREFETCHES:          0 PREFETCH ISSUED TO LOWER LEVEL:          0  ACCURACY: -nan
PSCL5 TIMELY PREFETCHES:          0 LATE PREFETCHES: 0 DROPPED PREFETCHES: 0
PSCL5 PREFETCHES SAME FILL-ORIGIN LEVEL: 0 DIFFERENT FILL-ORIGIN LEVEL: 0

PSCL4 TOTAL     ACCESS:      17452  HIT:      17427  MISS:         25  HIT %:    99.8567  MISS %:    0.14325   MPKI: 0.0005
PSCL4 LOAD TRANSLATION ACCESS:      17089  HIT:      17064  MISS:         25  HIT %:    99.8537  MISS %:   0.146293   MPKI: 0.0005
PSCL4 TRANSLATION FROM L1D PREFETCHER ACCESS:        363  HIT:        363  MISS:          0  HIT %:        100  MISS %:          0   MPKI: 0
PSCL4 PREFETCH  REQUESTED:          0  ISSUED:          0  USEFUL:          0  USELESS:          0
PSCL4 USEFUL LOAD PREFETCHES:          0 PREFETCH ISSUED TO LOWER LEVEL:          0  ACCURACY: -nan
PSCL4 TIMELY PREFETCHES:          0 LATE PREFETCHES: 0 DROPPED PREFETCHES: 0
PSCL4 PREFETCHES SAME FILL-ORIGIN LEVEL: 0 DIFFERENT FILL-ORIGIN LEVEL: 0

PSCL3 TOTAL     ACCESS:      19539  HIT:      19489  MISS:         50  HIT %:    99.7441  MISS %:   0.255898   MPKI: 0.001
PSCL3 LOAD TRANSLATION ACCESS:      19187  HIT:      19137  MISS:         50  HIT %:    99.7394  MISS %:   0.260593   MPKI: 0.001
PSCL3 TRANSLATION FROM L1D PREFETCHER ACCESS:        352  HIT:        352  MISS:          0  HIT %:        100  MISS %:          0   MPKI: 0
PSCL3 PREFETCH  REQUESTED:          0  ISSUED:          0  USEFUL:          0  USELESS:          0
PSCL3 USEFUL LOAD PREFETCHES:          0 PREFETCH ISSUED TO LOWER LEVEL:          0  ACCURACY: -nan
PSCL3 TIMELY PREFETCHES:          0 LATE PREFETCHES: 0 DROPPED PREFETCHES: 0
PSCL3 PREFETCHES SAME FILL-ORIGIN LEVEL: 0 DIFFERENT FILL-ORIGIN LEVEL: 0

PSCL2 TOTAL     ACCESS:      19546  HIT:      17516  MISS:       2030  HIT %:    89.6142  MISS %:    10.3858   MPKI: 0.0406
PSCL2 LOAD TRANSLATION ACCESS:      19318  HIT:      17288  MISS:       2030  HIT %:    89.4917  MISS %:    10.5083   MPKI: 0.0406
PSCL2 TRANSLATION FROM L1D PREFETCHER ACCESS:        228  HIT:        228  MISS:          0  HIT %:        100  MISS %:          0   MPKI: 0
PSCL2 PREFETCH  REQUESTED:          0  ISSUED:          0  USEFUL:          0  USELESS:          0
PSCL2 USEFUL LOAD PREFETCHES:          0 PREFETCH ISSUED TO LOWER LEVEL:          0  ACCURACY: -nan
PSCL2 TIMELY PREFETCHES:          0 LATE PREFETCHES: 0 DROPPED PREFETCHES: 0
PSCL2 PREFETCHES SAME FILL-ORIGIN LEVEL: 0 DIFFERENT FILL-ORIGIN LEVEL: 0

LLC TOTAL     ACCESS:    2856907  HIT:    1366848  MISS:    1490059  HIT %:    47.8436  MISS %:    52.1564   MPKI: 29.8012
LLC LOAD      ACCESS:     332082  HIT:     281187  MISS:      50895  HIT %:     84.674  MISS %:     15.326   MPKI: 1.0179
LLC RFO       ACCESS:     952020  HIT:     230326  MISS:     721694  HIT %:    24.1934  MISS %:    75.8066   MPKI: 14.4339
LLC PREFETCH  ACCESS:     474818  HIT:     169187  MISS:     305631  HIT %:     35.632  MISS %:     64.368   MPKI: 6.11262
LLC WRITEBACK ACCESS:    1088407  HIT:     683376  MISS:     405031  HIT %:    62.7868  MISS %:    37.2132   MPKI: 8.10062
LLC LOAD TRANSLATION ACCESS:       9160  HIT:       2620  MISS:       6540  HIT %:    28.6026  MISS %:    71.3974   MPKI: 0.1308
LLC TRANSLATION FROM L1D PREFETCHER ACCESS:        420  HIT:        152  MISS:        268  HIT %:    36.1905  MISS %:    63.8095   MPKI: 0.00536
LLC PREFETCH  REQUESTED:          0  ISSUED:          0  USEFUL:        911  USELESS:     310175
LLC USEFUL LOAD PREFETCHES:        911 PREFETCH ISSUED TO LOWER LEVEL:     305631  ACCURACY: 0.298072
LLC TIMELY PREFETCHES:        911 LATE PREFETCHES: 0 DROPPED PREFETCHES: 0
LLC PREFETCHES SAME FILL-ORIGIN LEVEL: 0 DIFFERENT FILL-ORIGIN LEVEL: 0
LLC AVERAGE MISS LATENCY: 172.762 cycles
LLC RQ	ACCESS:    1293682	FORWARD:          0	MERGED:          0	TO_CACHE:    1293682
LLC WQ	ACCESS:    1088407	FORWARD:          0	MERGED:          0	TO_CACHE:    1088407
LLC PQ	ACCESS:     474818	FORWARD:          0	MERGED:          0	TO_CACHE:     474818

LLC Dense regions hint to LLC: 0

RAW hits: 1389404
Loads Generated: 12456735
Loads sent to L1D: 11067331
Stores Generated: 8887926
Stores sent to L1D: 8887929
Major fault: 0 Minor fault: 23677
Allocated PAGES: 23677
I-Shadow cache 408 bytes
Touched + WorthPF tables 6144 bytes 
MMA filter 174 bytes 
FNL filter 272 bytes 
TOTAL PREFETCHER STORAGE SIZE: 25174 bytes
CPU 0 L1I next line prefetcher final stats

stream: 
stream:times selected: 3631855
stream:pref_filled: 68484
stream:pref_useful: 19399
stream:pref_late: 6485
stream:misses: 10603
stream:misses_by_poll: 0

CS: 
CS:times selected: 3450666
CS:pref_filled: 583650
CS:pref_useful: 561035
CS:pref_late: 72022
CS:misses: 86639
CS:misses_by_poll: 4225

CPLX: 
CPLX:times selected: 177488
CPLX:pref_filled: 14081
CPLX:pref_useful: 1857
CPLX:pref_late: 303
CPLX:misses: 31128
CPLX:misses_by_poll: 9

NL_L1: 
NL:times selected: 637
NL:pref_filled: 182
NL:pref_useful: 9
NL:pref_late: 3
NL:misses: 139
NL:misses_by_poll: 0

total selections: 7260646
total_filled: 285136
total_useful: 253216
total_late: 82194
total_polluted: 4234
total_misses_after_warmup: 157163
conflicts: 274419
Degree Incremented Times: 23921
Degree Decremented Times: 75154

L1 IP Table Write Accesses: 2149341
L1 IP Table Read Accesses: 1874922
L1 RST Write Accesses: 1780240
L1 RST Read Accesses: 3560480
L1 CSPT Write Accesses: 1780240
L1 CSPT Read Accesses: 1822915
L1 RR Filter Tag Write Accesses: 641688
L1 RR Filter Tag Read Accesses: 212111826
L1 IP Table Tag Write Accesses: 2436872
L1 IP Table Tag Read Accesses: 2436872
L1 RST Tag Write Accesses: 0
L1 RST Tag Read Accesses: 16119888
L1 RR Filter Write Accesses: 0
L1 RR Filter Read Accesses: 6877325
test: 118713

DRAM Statistics
 CHANNEL 0
 RQ ROW_BUFFER_HIT:     444470  ROW_BUFFER_MISS:     640456
 DBUS_CONGESTED:        485
 WQ ROW_BUFFER_HIT:     178999  ROW_BUFFER_MISS:     565028  FULL:       9817

 AVG_CONGESTED_CYCLE: 2
 All warmup complete: 2
Channel 0 Bank busy for read cycles: 0
Channel 0 Bank busy for write cycles: 0
Channel 0
Rank 0
0banks busy for read cycles: 27319700
0banks busy for write cycles: 43964
1banks busy for read cycles: 12465914
1banks busy for write cycles: 6282236
2banks busy for read cycles: 11500971
2banks busy for write cycles: 2648949
3banks busy for read cycles: 5130746
3banks busy for write cycles: 1397414
4banks busy for read cycles: 4229235
4banks busy for write cycles: 1024715
5banks busy for read cycles: 804261
5banks busy for write cycles: 909606
6banks busy for read cycles: 716599
6banks busy for write cycles: 908338
7banks busy for read cycles: 986028
7banks busy for write cycles: 1645811
8banks busy for read cycles: 4702896
8banks busy for write cycles: 11017877

CPU 0 Branch Prediction Accuracy: 99.8317% MPKI: 0.27564 Average ROB Occupancy at Mispredict: 110.513
Branch types
NOT_BRANCH: 41810965 83.6219%
BRANCH_DIRECT_JUMP: 445734 0.891468%
BRANCH_INDIRECT: 48875 0.09775%
BRANCH_CONDITIONAL: 5859370 11.7187%
BRANCH_DIRECT_CALL: 758262 1.51652%
BRANCH_INDIRECT_CALL: 159103 0.318206%
BRANCH_RETURN: 917368 1.83474%
BRANCH_OTHER: 0 0%

DRAM PAGES: 1048576
Allocated PAGES: 23677
