Initialize SIGNATURE TABLE
ST_SET: 1
ST_WAY: 256
ST_TAG_BIT: 16
ST_TAG_MASK: ffff

Initialize PATTERN TABLE
PT_SET: 512
PT_WAY: 4
SIG_DELTA_BIT: 7
C_SIG_BIT: 4
C_DELTA_BIT: 4

Initialize PREFETCH FILTER
FILTER_SET: 1024

Initialize PERCEPTRON
PERC_ENTRIES: 4096
PERC_FEATURES: 9

*** ChampSim Multicore Out-of-Order Simulator ***

Warmup Instructions: 50000000
Simulation Instructions: 50000000
Number of CPUs: 1
LLC sets: 2048
LLC ways: 16
Off-chip DRAM Size: 4096 MB Channels: 1 Width: 64-bit Data Rate: 6400 MT/s
CPU 0 runs ../IPC-traces//server_032.champsimtrace.xz
.xz
NUM_OF_IPS_IN_CRITICAL_IP_TRAINING: 64
NUM_OF_CRITICAL_IP_TRAINING_TABLE_WAYS: 2
NUM_OF_CRITICAL_IP_TRAINING_TABLE_SETS: 32
WOBBLY_CRITICAL_IP_CACHE_SETS: 32
WOBBLY_CRITICAL_IP_CACHE_WAYS: 4
BTB has LRU replacement policy
ITLB has LRU replacement policy
DTLB has LRU replacement policy
STLB has LRU replacement policy
CPU 0 L1I next line prefetcher
L1I has LRU replacement policy
L1D has LRU replacement policy
Initialize SRRIP state for L2C
Initialize DRRIP state for LLC
Heartbeat CPU 0 instructions: 10000002 cycles: 2874335 heartbeat IPC: 3.47907 cumulative IPC: 3.47907 (Simulation time: 0 hr 3 min 49 sec) 
Heartbeat CPU 0 instructions: 20000003 cycles: 5746625 heartbeat IPC: 3.48154 cumulative IPC: 3.4803 (Simulation time: 0 hr 6 min 47 sec) 
Heartbeat CPU 0 instructions: 30000000 cycles: 8617854 heartbeat IPC: 3.48283 cumulative IPC: 3.48115 (Simulation time: 0 hr 9 min 35 sec) 
Heartbeat CPU 0 instructions: 40000000 cycles: 11490802 heartbeat IPC: 3.48075 cumulative IPC: 3.48105 (Simulation time: 0 hr 12 min 5 sec) 
Heartbeat CPU 0 instructions: 50000003 cycles: 14363314 heartbeat IPC: 3.48127 cumulative IPC: 3.48109 (Simulation time: 0 hr 14 min 19 sec) 

Warmup complete CPU 0 instructions: 50000003 cycles: 14363314 (Simulation time: 0 hr 14 min 19 sec) 

% increase in all ip prefetch 401.803
% increase in all ip prefetch 0.719488
Heartbeat CPU 0 instructions: 60000000 cycles: 30081821 heartbeat IPC: 0.636193 cumulative IPC: 0.636193 (Simulation time: 0 hr 16 min 54 sec) 
Heartbeat CPU 0 instructions: 70000001 cycles: 45769118 heartbeat IPC: 0.637459 cumulative IPC: 0.636825 (Simulation time: 0 hr 19 min 26 sec) 
*** Reached end of trace for Core: 0 Repeating trace: ../IPC-traces//server_032.champsimtrace.xz
Heartbeat CPU 0 instructions: 80000003 cycles: 61442584 heartbeat IPC: 0.638021 cumulative IPC: 0.637223 (Simulation time: 0 hr 22 min 1 sec) 
Heartbeat CPU 0 instructions: 90000002 cycles: 77043770 heartbeat IPC: 0.640977 cumulative IPC: 0.638157 (Simulation time: 0 hr 24 min 29 sec) 
Heartbeat CPU 0 instructions: 100000001 cycles: 92655903 heartbeat IPC: 0.640527 cumulative IPC: 0.63863 (Simulation time: 0 hr 27 min 12 sec) 
Finished CPU 0 instructions: 50000003 cycles: 78292603 cumulative IPC: 0.63863 (Simulation time: 0 hr 27 min 12 sec) 

ChampSim completed all CPUs

Region of Interest Statistics

CPU 0 cumulative IPC: 0.63863 instructions: 50000003 cycles: 78292603

CPU 0 Average Load ROB stall cycles: 1.87195e+07
CPU 0 Fraction of times ROB stalled by Loads: 34.9571
CPU 0 Percentage of Load stall cycles in Total stall cycles: 2.79309e+08
Issued all: 27838703
Issued LT all: 22033902
rob_not_full_when_issued_lt_all: 22002077
Issued LT one: 17053977
rob_not_full_when_issued_lt_one: 17029850
 Total stall cycles: 66048060
 Total load stall cycles: 184478271329425
CPU 0 NUM of IPS identified critical: 0
CPU 0 Num of Load IPs stalling ROB: 8151
Threshold modification factor: -1
Max PIST entries: 64
Min PIST entries: 0
Avg PIST entries: 32
Trouble in retire width: 0.893243
MaC = Marked as critical.
lt_50_percent_before_Mac: 0
gt_90_percent_before_Mac: 0
gt_75_percent_before_Mac: 0
gt_50_percent_before_Mac: 0
stall_proportion_bin_same_before_after: 0
stall_proportion_bin_lower_before_after: 0
stall_proportion_bin_upper_before_after: 0
average_stall_proportion_before: -nan
average_stall_proportion_after: -nan
Critical IP stalls, total frequency: 0
Non-critical IP stalls, total frequency: 3444972
Total Freq all stalling IPs: 3444972
stat_90_percent_critical_ip_stalls_freq: 3100625
stat_90_percent_non_critical_ip_stalls_freq: 344347
Critical_IP_ROB_Stalls_Bucket_0: 0
Non-critical_IP_ROB_Stalls_Bucket_0: 2482654
Critical_IP_ROB_Stalls_Bucket_1: 0
Non-critical_IP_ROB_Stalls_Bucket_1: 734846
Critical_IP_ROB_Stalls_Bucket_2: 0
Non-critical_IP_ROB_Stalls_Bucket_2: 174991
Critical_IP_ROB_Stalls_Bucket_3: 0
Non-critical_IP_ROB_Stalls_Bucket_3: 36817
Critical_IP_ROB_Stalls_Bucket_4: 0
Non-critical_IP_ROB_Stalls_Bucket_4: 8274
Critical_IP_ROB_Stalls_Bucket_5: 0
Non-critical_IP_ROB_Stalls_Bucket_5: 3794
Critical_IP_ROB_Stalls_Bucket_6: 0
Non-critical_IP_ROB_Stalls_Bucket_6: 3596
0 => IPs accounting for >50 percent of stalls, 1 => 55, 2 => 60, 3 => 65 and so on till 90.
percent50: 50.0253 num IPs:  527
percent55: 55.0157 num IPs: 722
percent60: 60.0077 num IPs: 919
percent65: 65.0193 num IPs: 1117
percent70: 70.0063 num IPs: 1314
percent75: 75.0108 num IPs: 1512
percent80: 80.0125 num IPs: 1712
percent85: 85.0179 num IPs: 1917
percent90: 90.0048 num IPs: 2134
Critical_ROB_Stalls_Percent_0_Bucket_0: 1071093
Non-critical_ROB_Stalls_Percent_0_Bucket_0: 1411561
Critical_ROB_Stalls_Percent_0_Bucket_1: 466980
Non-critical_ROB_Stalls_Percent_0_Bucket_1: 267866
Critical_ROB_Stalls_Percent_0_Bucket_2: 137763
Non-critical_ROB_Stalls_Percent_0_Bucket_2: 37228
Critical_ROB_Stalls_Percent_0_Bucket_3: 33378
Non-critical_ROB_Stalls_Percent_0_Bucket_3: 3439
Critical_ROB_Stalls_Percent_0_Bucket_4: 7789
Non-critical_ROB_Stalls_Percent_0_Bucket_4: 485
Critical_ROB_Stalls_Percent_0_Bucket_5: 3332
Non-critical_ROB_Stalls_Percent_0_Bucket_5: 462
Critical_ROB_Stalls_Percent_0_Bucket_6: 3021
Non-critical_ROB_Stalls_Percent_0_Bucket_6: 575
Critical_ROB_Stalls_Percent_1_Bucket_0: 1195249
Non-critical_ROB_Stalls_Percent_1_Bucket_0: 1287405
Critical_ROB_Stalls_Percent_1_Bucket_1: 505638
Non-critical_ROB_Stalls_Percent_1_Bucket_1: 229208
Critical_ROB_Stalls_Percent_1_Bucket_2: 146286
Non-critical_ROB_Stalls_Percent_1_Bucket_2: 28705
Critical_ROB_Stalls_Percent_1_Bucket_3: 33961
Non-critical_ROB_Stalls_Percent_1_Bucket_3: 2856
Critical_ROB_Stalls_Percent_1_Bucket_4: 7789
Non-critical_ROB_Stalls_Percent_1_Bucket_4: 485
Critical_ROB_Stalls_Percent_1_Bucket_5: 3332
Non-critical_ROB_Stalls_Percent_1_Bucket_5: 462
Critical_ROB_Stalls_Percent_1_Bucket_6: 3021
Non-critical_ROB_Stalls_Percent_1_Bucket_6: 575
Critical_ROB_Stalls_Percent_2_Bucket_0: 1312866
Non-critical_ROB_Stalls_Percent_2_Bucket_0: 1169788
Critical_ROB_Stalls_Percent_2_Bucket_1: 553846
Non-critical_ROB_Stalls_Percent_2_Bucket_1: 181000
Critical_ROB_Stalls_Percent_2_Bucket_2: 152268
Non-critical_ROB_Stalls_Percent_2_Bucket_2: 22723
Critical_ROB_Stalls_Percent_2_Bucket_3: 34128
Non-critical_ROB_Stalls_Percent_2_Bucket_3: 2689
Critical_ROB_Stalls_Percent_2_Bucket_4: 7789
Non-critical_ROB_Stalls_Percent_2_Bucket_4: 485
Critical_ROB_Stalls_Percent_2_Bucket_5: 3332
Non-critical_ROB_Stalls_Percent_2_Bucket_5: 462
Critical_ROB_Stalls_Percent_2_Bucket_6: 3021
Non-critical_ROB_Stalls_Percent_2_Bucket_6: 575
Critical_ROB_Stalls_Percent_3_Bucket_0: 1458852
Non-critical_ROB_Stalls_Percent_3_Bucket_0: 1023802
Critical_ROB_Stalls_Percent_3_Bucket_1: 578262
Non-critical_ROB_Stalls_Percent_3_Bucket_1: 156584
Critical_ROB_Stalls_Percent_3_Bucket_2: 154518
Non-critical_ROB_Stalls_Percent_3_Bucket_2: 20473
Critical_ROB_Stalls_Percent_3_Bucket_3: 34130
Non-critical_ROB_Stalls_Percent_3_Bucket_3: 2687
Critical_ROB_Stalls_Percent_3_Bucket_4: 7789
Non-critical_ROB_Stalls_Percent_3_Bucket_4: 485
Critical_ROB_Stalls_Percent_3_Bucket_5: 3332
Non-critical_ROB_Stalls_Percent_3_Bucket_5: 462
Critical_ROB_Stalls_Percent_3_Bucket_6: 3023
Non-critical_ROB_Stalls_Percent_3_Bucket_6: 573
Critical_ROB_Stalls_Percent_4_Bucket_0: 1593095
Non-critical_ROB_Stalls_Percent_4_Bucket_0: 889559
Critical_ROB_Stalls_Percent_4_Bucket_1: 612629
Non-critical_ROB_Stalls_Percent_4_Bucket_1: 122217
Critical_ROB_Stalls_Percent_4_Bucket_2: 157691
Non-critical_ROB_Stalls_Percent_4_Bucket_2: 17300
Critical_ROB_Stalls_Percent_4_Bucket_3: 34131
Non-critical_ROB_Stalls_Percent_4_Bucket_3: 2686
Critical_ROB_Stalls_Percent_4_Bucket_4: 7789
Non-critical_ROB_Stalls_Percent_4_Bucket_4: 485
Critical_ROB_Stalls_Percent_4_Bucket_5: 3332
Non-critical_ROB_Stalls_Percent_4_Bucket_5: 462
Critical_ROB_Stalls_Percent_4_Bucket_6: 3023
Non-critical_ROB_Stalls_Percent_4_Bucket_6: 573
Critical_ROB_Stalls_Percent_5_Bucket_0: 1745992
Non-critical_ROB_Stalls_Percent_5_Bucket_0: 736662
Critical_ROB_Stalls_Percent_5_Bucket_1: 629821
Non-critical_ROB_Stalls_Percent_5_Bucket_1: 105025
Critical_ROB_Stalls_Percent_5_Bucket_2: 159818
Non-critical_ROB_Stalls_Percent_5_Bucket_2: 15173
Critical_ROB_Stalls_Percent_5_Bucket_3: 34312
Non-critical_ROB_Stalls_Percent_5_Bucket_3: 2505
Critical_ROB_Stalls_Percent_5_Bucket_4: 7789
Non-critical_ROB_Stalls_Percent_5_Bucket_4: 485
Critical_ROB_Stalls_Percent_5_Bucket_5: 3332
Non-critical_ROB_Stalls_Percent_5_Bucket_5: 462
Critical_ROB_Stalls_Percent_5_Bucket_6: 3023
Non-critical_ROB_Stalls_Percent_5_Bucket_6: 573
Critical_ROB_Stalls_Percent_6_Bucket_0: 1897395
Non-critical_ROB_Stalls_Percent_6_Bucket_0: 585259
Critical_ROB_Stalls_Percent_6_Bucket_1: 647534
Non-critical_ROB_Stalls_Percent_6_Bucket_1: 87312
Critical_ROB_Stalls_Percent_6_Bucket_2: 162319
Non-critical_ROB_Stalls_Percent_6_Bucket_2: 12672
Critical_ROB_Stalls_Percent_6_Bucket_3: 34949
Non-critical_ROB_Stalls_Percent_6_Bucket_3: 1868
Critical_ROB_Stalls_Percent_6_Bucket_4: 7844
Non-critical_ROB_Stalls_Percent_6_Bucket_4: 430
Critical_ROB_Stalls_Percent_6_Bucket_5: 3332
Non-critical_ROB_Stalls_Percent_6_Bucket_5: 462
Critical_ROB_Stalls_Percent_6_Bucket_6: 3023
Non-critical_ROB_Stalls_Percent_6_Bucket_6: 573
Critical_ROB_Stalls_Percent_7_Bucket_0: 2047991
Non-critical_ROB_Stalls_Percent_7_Bucket_0: 434663
Critical_ROB_Stalls_Percent_7_Bucket_1: 667184
Non-critical_ROB_Stalls_Percent_7_Bucket_1: 67662
Critical_ROB_Stalls_Percent_7_Bucket_2: 164424
Non-critical_ROB_Stalls_Percent_7_Bucket_2: 10567
Critical_ROB_Stalls_Percent_7_Bucket_3: 35017
Non-critical_ROB_Stalls_Percent_7_Bucket_3: 1800
Critical_ROB_Stalls_Percent_7_Bucket_4: 7848
Non-critical_ROB_Stalls_Percent_7_Bucket_4: 426
Critical_ROB_Stalls_Percent_7_Bucket_5: 3333
Non-critical_ROB_Stalls_Percent_7_Bucket_5: 461
Critical_ROB_Stalls_Percent_7_Bucket_6: 3031
Non-critical_ROB_Stalls_Percent_7_Bucket_6: 565
Critical_ROB_Stalls_Percent_8_Bucket_0: 2204795
Non-critical_ROB_Stalls_Percent_8_Bucket_0: 277859
Critical_ROB_Stalls_Percent_8_Bucket_1: 681024
Non-critical_ROB_Stalls_Percent_8_Bucket_1: 53822
Critical_ROB_Stalls_Percent_8_Bucket_2: 165544
Non-critical_ROB_Stalls_Percent_8_Bucket_2: 9447
Critical_ROB_Stalls_Percent_8_Bucket_3: 35026
Non-critical_ROB_Stalls_Percent_8_Bucket_3: 1791
Critical_ROB_Stalls_Percent_8_Bucket_4: 7861
Non-critical_ROB_Stalls_Percent_8_Bucket_4: 413
Critical_ROB_Stalls_Percent_8_Bucket_5: 3344
Non-critical_ROB_Stalls_Percent_8_Bucket_5: 450
Critical_ROB_Stalls_Percent_8_Bucket_6: 3031
Non-critical_ROB_Stalls_Percent_8_Bucket_6: 565
Average ROB occupancy Load Stall Begin: 33.1235
Average ROB occupancy Load Stall End: 41.2683
Min ROB occupancy Load Stall Begin: 1
Max ROB occupancy Load Stall Begin: 352
Min ROB occupancy Load Stall End: 1
Max ROB occupancy Load Stall End: 352
Average ROB occupancy Critical Load Stall Begin: -nan
Average ROB occupancy Critical Load Stall End: -nan
Min ROB occupancy Critical Load Stall Begin: 400
Max ROB occupancy Critical Load Stall Begin: 0
Min ROB occupancy Critical Load Stall End: 400
Max ROB occupancy Critical Load Stall End: 0
 ROB Load Stall Begin Bucket Count 0: 2754227
 ROB Load Stall End Bucket Count 0: 2482654
 ROB Critical Load Stall Begin Bucket Count 0: 0
 ROB Critical Load Stall End Bucket Count 0: 0
 ROB Load Stall Begin Bucket Count 1: 526691
 ROB Load Stall End Bucket Count 1: 734846
 ROB Critical Load Stall Begin Bucket Count 1: 0
 ROB Critical Load Stall End Bucket Count 1: 0
 ROB Load Stall Begin Bucket Count 2: 122319
 ROB Load Stall End Bucket Count 2: 174991
 ROB Critical Load Stall Begin Bucket Count 2: 0
 ROB Critical Load Stall End Bucket Count 2: 0
 ROB Load Stall Begin Bucket Count 3: 28498
 ROB Load Stall End Bucket Count 3: 36817
 ROB Critical Load Stall Begin Bucket Count 3: 0
 ROB Critical Load Stall End Bucket Count 3: 0
 ROB Load Stall Begin Bucket Count 4: 6960
 ROB Load Stall End Bucket Count 4: 8274
 ROB Critical Load Stall Begin Bucket Count 4: 0
 ROB Critical Load Stall End Bucket Count 4: 0
 ROB Load Stall Begin Bucket Count 5: 3622
 ROB Load Stall End Bucket Count 5: 3794
 ROB Critical Load Stall Begin Bucket Count 5: 0
 ROB Critical Load Stall End Bucket Count 5: 0
 ROB Load Stall Begin Bucket Count 6: 2655
 ROB Load Stall End Bucket Count 6: 3596
 ROB Critical Load Stall Begin Bucket Count 6: 0
 ROB Critical Load Stall End Bucket Count 6: 0
PIST Tag Read Accesses: 2489772
PIST Read Accesses: 1244886
PIST Tag Write Accesses: 2489772
PIST Write Accesses: 1244886
Criticality detector called times: 3444972
Max global_stall_cycles_count: 1946985
Threshold Modified: 1 times, factor: -1
Sturdy critical IP cache stats: 
 Unused entries: 0
CIC Tag Read Accesses: 0
CIC Read Accesses: 0
CIC Tag Write Accesses: 0
CIC Write Accesses: 0
Wobbly critical IP cache stats: 
 Unused entries: 128
CIC Tag Read Accesses: 85652420
CIC Read Accesses: 0
CIC Tag Write Accesses: 0
CIC Write Accesses: 0
ITLB TOTAL     ACCESS:   10454536  HIT:    9699343  MISS:     755193  HIT %:    92.7764  MISS %:    7.22359   MPKI: 15.1039
ITLB LOAD TRANSLATION ACCESS:    8197017  HIT:    8146656  MISS:      50361  HIT %:    99.3856  MISS %:   0.614382   MPKI: 1.00722
ITLB TRANSLATION FROM L1D PREFETCHER ACCESS:    2257519  HIT:    1552687  MISS:     704832  HIT %:    68.7785  MISS %:    31.2215   MPKI: 14.0966
ITLB PREFETCH  REQUESTED:          0  ISSUED:          0  USEFUL:     597056  USELESS:     107779
ITLB USEFUL LOAD PREFETCHES:     597056 PREFETCH ISSUED TO LOWER LEVEL:          0  ACCURACY: inf
ITLB TIMELY PREFETCHES:     597056 LATE PREFETCHES: 2 DROPPED PREFETCHES: 6981
ITLB PREFETCHES SAME FILL-ORIGIN LEVEL: 0 DIFFERENT FILL-ORIGIN LEVEL: 0
ITLB AVERAGE MISS LATENCY: 54.1648 cycles
ITLB RQ	ACCESS:   16173127	FORWARD:          0	MERGED:    5670040	TO_CACHE:   10503087

DTLB TOTAL     ACCESS:   11658209  HIT:   11147609  MISS:     510600  HIT %:    95.6203  MISS %:    4.37975   MPKI: 10.212
DTLB LOAD TRANSLATION ACCESS:   11658209  HIT:   11147609  MISS:     510600  HIT %:    95.6203  MISS %:    4.37975   MPKI: 10.212
DTLB PREFETCH  REQUESTED:          0  ISSUED:          0  USEFUL:          0  USELESS:          0
DTLB USEFUL LOAD PREFETCHES:          0 PREFETCH ISSUED TO LOWER LEVEL:          0  ACCURACY: -nan
DTLB TIMELY PREFETCHES:          0 LATE PREFETCHES: 0 DROPPED PREFETCHES: 0
DTLB PREFETCHES SAME FILL-ORIGIN LEVEL: 0 DIFFERENT FILL-ORIGIN LEVEL: 0
DTLB AVERAGE MISS LATENCY: 9.0465 cycles
DTLB RQ	ACCESS:   15262502	FORWARD:          0	MERGED:    3582657	TO_CACHE:   11679845

STLB TOTAL     ACCESS:    1265793  HIT:    1265489  MISS:        304  HIT %:     99.976  MISS %:  0.0240166   MPKI: 0.00608
STLB LOAD TRANSLATION ACCESS:     560959  HIT:     560655  MISS:        304  HIT %:    99.9458  MISS %:  0.0541929   MPKI: 0.00608
STLB TRANSLATION FROM L1D PREFETCHER ACCESS:     704834  HIT:     704834  MISS:          0  HIT %:        100  MISS %:          0   MPKI: 0
STLB PREFETCH  REQUESTED:          0  ISSUED:          0  USEFUL:          0  USELESS:          0
STLB USEFUL LOAD PREFETCHES:          0 PREFETCH ISSUED TO LOWER LEVEL:          0  ACCURACY: -nan
STLB TIMELY PREFETCHES:          0 LATE PREFETCHES: 0 DROPPED PREFETCHES: 6981
STLB PREFETCHES SAME FILL-ORIGIN LEVEL: 0 DIFFERENT FILL-ORIGIN LEVEL: 0
STLB AVERAGE MISS LATENCY: 27.0724 cycles
STLB RQ	ACCESS:    1272774	FORWARD:          0	MERGED:          0	TO_CACHE:    1272774

STLB Hit, L1D data hit: 0
STLB Hit, L2C data hit: 0
STLB Hit, LLC data hit: 0
STLB Hit, LLC data miss: 0
STLB STLB hints to L2: 0
L1D TOTAL     ACCESS:   14769262  HIT:   13634154  MISS:    1135108  HIT %:    92.3144  MISS %:    7.68561   MPKI: 22.7022
L1D LOAD      ACCESS:    8072891  HIT:    7237175  MISS:     835716  HIT %:    89.6479  MISS %:    10.3521   MPKI: 16.7143
L1D RFO       ACCESS:    6696371  HIT:    6396979  MISS:     299392  HIT %:     95.529  MISS %:    4.47096   MPKI: 5.98784
L1D PREFETCH  REQUESTED:          0  ISSUED:          0  USEFUL:          0  USELESS:          0
L1D USEFUL LOAD PREFETCHES:          0 PREFETCH ISSUED TO LOWER LEVEL:          0  ACCURACY: -nan
L1D TIMELY PREFETCHES:          0 LATE PREFETCHES: 0 DROPPED PREFETCHES: 0
L1D PREFETCHES SAME FILL-ORIGIN LEVEL: 0 DIFFERENT FILL-ORIGIN LEVEL: 0
L1D AVERAGE MISS LATENCY: 17.0227 cycles
L1D RQ	ACCESS:   11482250	FORWARD:          0	MERGED:    3219972	TO_CACHE:    8100858
L1D WQ	ACCESS:    7236333	FORWARD:     161420	MERGED:      74689	TO_CACHE:    7161644

L1D UNIQUE REGIONS ACCESSED: 0
L1D REGIONS CONFLICTS: 0
L1D Cross Page Prefetch Requests: 0
L1D Same Page Prefetch Requests: 0
L1D ROI Sum of L1D PQ occupancy: 0
L1D PREFETCHES PUSHED FROM L2C: 0
L1I TOTAL     ACCESS:   16093597  HIT:   11669494  MISS:    4424103  HIT %:    72.5102  MISS %:    27.4898   MPKI: 88.4821
L1I LOAD      ACCESS:    9753297  HIT:    9719683  MISS:      33614  HIT %:    99.6554  MISS %:   0.344642   MPKI: 0.67228
L1I PREFETCH  ACCESS:    6340300  HIT:    1949811  MISS:    4390489  HIT %:    30.7527  MISS %:    69.2473   MPKI: 87.8098
L1I PREFETCH  REQUESTED:    6554315  ISSUED:    6540003  USEFUL:    3254129  USELESS:    1136358
L1I USEFUL LOAD PREFETCHES:    3254129 PREFETCH ISSUED TO LOWER LEVEL:    4402772  ACCURACY: 73.9109
L1I TIMELY PREFETCHES:    3254129 LATE PREFETCHES: 12283 DROPPED PREFETCHES: 16582
L1I PREFETCHES SAME FILL-ORIGIN LEVEL: 4402772 DIFFERENT FILL-ORIGIN LEVEL: 0
L1I AVERAGE MISS LATENCY: 147619 cycles
L1I RQ	ACCESS:   13690437	FORWARD:          0	MERGED:    3929989	TO_CACHE:    9760448
L1I PQ	ACCESS:    6540003	FORWARD:          0	MERGED:     127324	TO_CACHE:    6412679

BTB TOTAL     ACCESS:    5868586  HIT:    3860324  MISS:    2008262  HIT %:    65.7795  MISS %:    34.2205   MPKI: 40.1652
BTB BRANCH_DIRECT_JUMP	ACCESS:     508368  HIT:     346588  MISS:     161780
BTB BRANCH_INDIRECT	ACCESS:     180051  HIT:     143281  MISS:      36770
BTB BRANCH_CONDITIONAL	ACCESS:    2594502  HIT:    2045018  MISS:     549484
BTB BRANCH_DIRECT_CALL	ACCESS:    1086730  HIT:     694535  MISS:     392195
BTB BRANCH_INDIRECT_CALL	ACCESS:     206109  HIT:     130934  MISS:      75175
BTB BRANCH_RETURN	ACCESS:    1292826  HIT:     499968  MISS:     792858
BTB BRANCH_OTHER ACCESS:          0  HIT:          0  MISS:          0

L2C TOTAL     ACCESS:    6190966  HIT:    5924416  MISS:     266550  HIT %:    95.6945  MISS %:    4.30547   MPKI: 5.331
L2C LOAD      ACCESS:     856996  HIT:     800125  MISS:      56871  HIT %:    93.3639  MISS %:    6.63609   MPKI: 1.13742
L2C DATA LOAD MPKI: 1.13022
L2C INSTRUCTION LOAD MPKI: 0.0072
L2C RFO       ACCESS:     299392  HIT:     293568  MISS:       5824  HIT %:    98.0547  MISS %:    1.94528   MPKI: 0.11648
L2C PREFETCH  ACCESS:    4438722  HIT:    4240915  MISS:     197807  HIT %:    95.5436  MISS %:     4.4564   MPKI: 3.95614
L2C DATA PREFETCH MPKI: 0.10884
L2C INSTRUCTION PREFETCH MPKI: 3.8473
L2C WRITEBACK ACCESS:     588571  HIT:     582582  MISS:       5989  HIT %:    98.9825  MISS %:    1.01755   MPKI: 0.11978
L2C LOAD TRANSLATION ACCESS:        304  HIT:        245  MISS:         59  HIT %:    80.5921  MISS %:    19.4079   MPKI: 0.00118
L2C TRANSLATION FROM L1D PREFETCHER ACCESS:       6981  HIT:       6981  MISS:          0  HIT %:        100  MISS %:          0   MPKI: 0
L2C PREFETCH  REQUESTED:      38145  ISSUED:      38142  USEFUL:        823  USELESS:     198708
L2C USEFUL LOAD PREFETCHES:        823 PREFETCH ISSUED TO LOWER LEVEL:     199800  ACCURACY: 0.411912
L2C TIMELY PREFETCHES:        823 LATE PREFETCHES: 298 DROPPED PREFETCHES: 0
L2C PREFETCHES SAME FILL-ORIGIN LEVEL: 5740 DIFFERENT FILL-ORIGIN LEVEL: 1695
L2C AVERAGE MISS LATENCY: 31.0363 cycles
L2C RQ	ACCESS:    1163724	FORWARD:          0	MERGED:          0	TO_CACHE:    1163673
L2C WQ	ACCESS:     588571	FORWARD:         52	MERGED:          0	TO_CACHE:     588571
L2C PQ	ACCESS:    4440914	FORWARD:          0	MERGED:         30	TO_CACHE:    4440883

L2C Instructions Evicting Data 38662
L2C Translations Evicting Data 56
L2C Data Evicting Data 34474
L2C Instructions Evicting Instructions 154062
L2C Translations Evicting Instructions 3
L2C Data Evicting Instructions 33254
L2C Instructions Evicting Translations 1
L2C Translations Evicting Translations 0
L2C Data Evicting Translations 49
L2C Dense regions hint from L2: 0
PSCL5 TOTAL     ACCESS:       7285  HIT:       7285  MISS:          0  HIT %:        100  MISS %:          0   MPKI: 0
PSCL5 LOAD TRANSLATION ACCESS:        304  HIT:        304  MISS:          0  HIT %:        100  MISS %:          0   MPKI: 0
PSCL5 TRANSLATION FROM L1D PREFETCHER ACCESS:       6981  HIT:       6981  MISS:          0  HIT %:        100  MISS %:          0   MPKI: 0
PSCL5 PREFETCH  REQUESTED:          0  ISSUED:          0  USEFUL:          0  USELESS:          0
PSCL5 USEFUL LOAD PREFETCHES:          0 PREFETCH ISSUED TO LOWER LEVEL:          0  ACCURACY: -nan
PSCL5 TIMELY PREFETCHES:          0 LATE PREFETCHES: 0 DROPPED PREFETCHES: 0
PSCL5 PREFETCHES SAME FILL-ORIGIN LEVEL: 0 DIFFERENT FILL-ORIGIN LEVEL: 0

PSCL4 TOTAL     ACCESS:       7285  HIT:       7285  MISS:          0  HIT %:        100  MISS %:          0   MPKI: 0
PSCL4 LOAD TRANSLATION ACCESS:        304  HIT:        304  MISS:          0  HIT %:        100  MISS %:          0   MPKI: 0
PSCL4 TRANSLATION FROM L1D PREFETCHER ACCESS:       6981  HIT:       6981  MISS:          0  HIT %:        100  MISS %:          0   MPKI: 0
PSCL4 PREFETCH  REQUESTED:          0  ISSUED:          0  USEFUL:          0  USELESS:          0
PSCL4 USEFUL LOAD PREFETCHES:          0 PREFETCH ISSUED TO LOWER LEVEL:          0  ACCURACY: -nan
PSCL4 TIMELY PREFETCHES:          0 LATE PREFETCHES: 0 DROPPED PREFETCHES: 0
PSCL4 PREFETCHES SAME FILL-ORIGIN LEVEL: 0 DIFFERENT FILL-ORIGIN LEVEL: 0

PSCL3 TOTAL     ACCESS:       7285  HIT:       7285  MISS:          0  HIT %:        100  MISS %:          0   MPKI: 0
PSCL3 LOAD TRANSLATION ACCESS:        304  HIT:        304  MISS:          0  HIT %:        100  MISS %:          0   MPKI: 0
PSCL3 TRANSLATION FROM L1D PREFETCHER ACCESS:       6981  HIT:       6981  MISS:          0  HIT %:        100  MISS %:          0   MPKI: 0
PSCL3 PREFETCH  REQUESTED:          0  ISSUED:          0  USEFUL:          0  USELESS:          0
PSCL3 USEFUL LOAD PREFETCHES:          0 PREFETCH ISSUED TO LOWER LEVEL:          0  ACCURACY: -nan
PSCL3 TIMELY PREFETCHES:          0 LATE PREFETCHES: 0 DROPPED PREFETCHES: 0
PSCL3 PREFETCHES SAME FILL-ORIGIN LEVEL: 0 DIFFERENT FILL-ORIGIN LEVEL: 0

PSCL2 TOTAL     ACCESS:       7285  HIT:       7285  MISS:          0  HIT %:        100  MISS %:          0   MPKI: 0
PSCL2 LOAD TRANSLATION ACCESS:        304  HIT:        304  MISS:          0  HIT %:        100  MISS %:          0   MPKI: 0
PSCL2 TRANSLATION FROM L1D PREFETCHER ACCESS:       6981  HIT:       6981  MISS:          0  HIT %:        100  MISS %:          0   MPKI: 0
PSCL2 PREFETCH  REQUESTED:          0  ISSUED:          0  USEFUL:          0  USELESS:          0
PSCL2 USEFUL LOAD PREFETCHES:          0 PREFETCH ISSUED TO LOWER LEVEL:          0  ACCURACY: -nan
PSCL2 TIMELY PREFETCHES:          0 LATE PREFETCHES: 0 DROPPED PREFETCHES: 0
PSCL2 PREFETCHES SAME FILL-ORIGIN LEVEL: 0 DIFFERENT FILL-ORIGIN LEVEL: 0

LLC TOTAL     ACCESS:     272493  HIT:     268997  MISS:       3496  HIT %:     98.717  MISS %:    1.28297   MPKI: 0.06992
LLC LOAD      ACCESS:      56573  HIT:      53745  MISS:       2828  HIT %:    95.0011  MISS %:    4.99885   MPKI: 0.05656
LLC RFO       ACCESS:       5824  HIT:       5816  MISS:          8  HIT %:    99.8626  MISS %:   0.137363   MPKI: 0.00016
LLC PREFETCH  ACCESS:     199800  HIT:     199151  MISS:        649  HIT %:    99.6752  MISS %:   0.324825   MPKI: 0.01298
LLC WRITEBACK ACCESS:      10237  HIT:      10226  MISS:         11  HIT %:    99.8925  MISS %:   0.107453   MPKI: 0.00022
LLC LOAD TRANSLATION ACCESS:         59  HIT:         59  MISS:          0  HIT %:        100  MISS %:          0   MPKI: 0
LLC PREFETCH  REQUESTED:          0  ISSUED:          0  USEFUL:       4097  USELESS:        474
LLC USEFUL LOAD PREFETCHES:       4097 PREFETCH ISSUED TO LOWER LEVEL:        649  ACCURACY: 631.279
LLC TIMELY PREFETCHES:       4097 LATE PREFETCHES: 0 DROPPED PREFETCHES: 0
LLC PREFETCHES SAME FILL-ORIGIN LEVEL: 95 DIFFERENT FILL-ORIGIN LEVEL: 0
LLC AVERAGE MISS LATENCY: 136.636 cycles
LLC RQ	ACCESS:      62456	FORWARD:          0	MERGED:          0	TO_CACHE:      62456
LLC WQ	ACCESS:      10237	FORWARD:          0	MERGED:          0	TO_CACHE:      10237
LLC PQ	ACCESS:     199800	FORWARD:          0	MERGED:          0	TO_CACHE:     199800

LLC Dense regions hint to LLC: 0

RAW hits: 1153179
Loads Generated: 12635430
Loads sent to L1D: 11482250
Stores Generated: 7236320
Stores sent to L1D: 7236333
Major fault: 0 Minor fault: 1263
Allocated PAGES: 1263
I-Shadow cache 408 bytes
Touched + WorthPF tables 6144 bytes 
MMA filter 174 bytes 
FNL filter 272 bytes 
TOTAL PREFETCHER STORAGE SIZE: 25174 bytes
CPU 0 L1I next line prefetcher final stats
------------------
Depth Distribution
------------------
depth 0: 158255
depth 1: 10169300
depth 2: 77425
depth 3: 11
depth 4: 3
depth 5: 0
depth 6: 0
depth 7: 0
depth 8: 0
depth 9: 0
depth 10: 0
depth 11: 0
depth 12: 0
depth 13: 0
depth 14: 0
depth 15: 0
depth 16: 0
depth 17: 0
depth 18: 0
depth 19: 0
depth 20: 0
depth 21: 0
depth 22: 0
depth 23: 0
depth 24: 0
depth 25: 0
depth 26: 0
depth 27: 0
depth 28: 0
depth 29: 0
Total: 10404994
------------------
ST read accesses: 4544280
ST write accesses: 693210
PT read accesses: 58402217
PT write accesses: 6099461
FILTER read accesses: 18694764
FILTER write accesses: 755262
GHR read accesses: 8636469
GHR write accesses: 428898
PERC read accesses: 376469415
PERC write accesses: 314962
GHR counter read accesses: 10474980
GHR counter write accesses: 12908814
GHR ip read accesses: 16304808
GHR ip write accesses: 20949960
ST tag read accesses: 2370136920
ST tag write accesses: 259265062

DRAM Statistics
 CHANNEL 0
 RQ ROW_BUFFER_HIT:       1173  ROW_BUFFER_MISS:       2312
 DBUS_CONGESTED:          0
 WQ ROW_BUFFER_HIT:         13  ROW_BUFFER_MISS:         30  FULL:          0

 AVG_CONGESTED_CYCLE: -
 All warmup complete: 2
Channel 0 Bank busy for read cycles: 0
Channel 0 Bank busy for write cycles: 0
Channel 0
Rank 0
0banks busy for read cycles: 77901336
0banks busy for write cycles: 36
1banks busy for read cycles: 349170
1banks busy for write cycles: 13049
2banks busy for read cycles: 22672
2banks busy for write cycles: 2351
3banks busy for read cycles: 2824
3banks busy for write cycles: 595
4banks busy for read cycles: 405
4banks busy for write cycles: 0
5banks busy for read cycles: 152
5banks busy for write cycles: 0
6banks busy for read cycles: 14
6banks busy for write cycles: 0
7banks busy for read cycles: 0
7banks busy for write cycles: 0
8banks busy for read cycles: 0
8banks busy for write cycles: 0

CPU 0 Branch Prediction Accuracy: 99.8762% MPKI: 0.2296 Average ROB Occupancy at Mispredict: 87.9626
Branch types
NOT_BRANCH: 40725933 81.4519%
BRANCH_DIRECT_JUMP: 508368 1.01674%
BRANCH_INDIRECT: 180051 0.360102%
BRANCH_CONDITIONAL: 5999625 11.9992%
BRANCH_DIRECT_CALL: 1086730 2.17346%
BRANCH_INDIRECT_CALL: 206109 0.412218%
BRANCH_RETURN: 1292826 2.58565%
BRANCH_OTHER: 0 0%

DRAM PAGES: 1048576
Allocated PAGES: 1263
