
*** ChampSim Multicore Out-of-Order Simulator ***

Warmup Instructions: 50000000
Simulation Instructions: 50000000
Number of CPUs: 1
LLC sets: 2048
LLC ways: 16
Off-chip DRAM Size: 4096 MB Channels: 1 Width: 64-bit Data Rate: 6400 MT/s
CPU 0 runs ../IPC-traces//server_024.champsimtrace.xz
.xz
NUM_OF_IPS_IN_CRITICAL_IP_TRAINING: 64
NUM_OF_CRITICAL_IP_TRAINING_TABLE_WAYS: 2
NUM_OF_CRITICAL_IP_TRAINING_TABLE_SETS: 32
WOBBLY_CRITICAL_IP_CACHE_SETS: 32
WOBBLY_CRITICAL_IP_CACHE_WAYS: 4
BTB has LRU replacement policy
ITLB has LRU replacement policy
DTLB has LRU replacement policy
STLB has LRU replacement policy
CPU 0 L1I next line prefetcher
L1I has LRU replacement policy
IP Table Entries: 64
L1D has LRU replacement policy
Initialize SRRIP state for L2C
Initialize DRRIP state for LLC
Heartbeat CPU 0 instructions: 10000000 cycles: 2875073 heartbeat IPC: 3.47817 cumulative IPC: 3.47817 (Simulation time: 0 hr 5 min 21 sec) 
Heartbeat CPU 0 instructions: 20000002 cycles: 5743502 heartbeat IPC: 3.48623 cumulative IPC: 3.4822 (Simulation time: 0 hr 9 min 16 sec) 
Heartbeat CPU 0 instructions: 30000002 cycles: 8614607 heartbeat IPC: 3.48298 cumulative IPC: 3.48246 (Simulation time: 0 hr 13 min 13 sec) 
Heartbeat CPU 0 instructions: 40000000 cycles: 11485647 heartbeat IPC: 3.48306 cumulative IPC: 3.48261 (Simulation time: 0 hr 16 min 36 sec) 
Heartbeat CPU 0 instructions: 50000001 cycles: 14352743 heartbeat IPC: 3.48785 cumulative IPC: 3.48365 (Simulation time: 0 hr 19 min 53 sec) 

Warmup complete CPU 0 instructions: 50000001 cycles: 14352743 (Simulation time: 0 hr 19 min 53 sec) 

% increase in all ip prefetch 396.563
% increase in all ip prefetch 3.61655
Heartbeat CPU 0 instructions: 60000003 cycles: 30190975 heartbeat IPC: 0.631384 cumulative IPC: 0.631384 (Simulation time: 0 hr 22 min 56 sec) 
Heartbeat CPU 0 instructions: 70000000 cycles: 46040493 heartbeat IPC: 0.630934 cumulative IPC: 0.631159 (Simulation time: 0 hr 25 min 57 sec) 
*** Reached end of trace for Core: 0 Repeating trace: ../IPC-traces//server_024.champsimtrace.xz
Heartbeat CPU 0 instructions: 80000003 cycles: 61824444 heartbeat IPC: 0.633555 cumulative IPC: 0.631956 (Simulation time: 0 hr 28 min 52 sec) 
Heartbeat CPU 0 instructions: 90000003 cycles: 77700421 heartbeat IPC: 0.629883 cumulative IPC: 0.631436 (Simulation time: 0 hr 31 min 49 sec) 
Heartbeat CPU 0 instructions: 100000002 cycles: 93565357 heartbeat IPC: 0.630321 cumulative IPC: 0.631213 (Simulation time: 0 hr 34 min 25 sec) 
Finished CPU 0 instructions: 50000001 cycles: 79212614 cumulative IPC: 0.631213 (Simulation time: 0 hr 34 min 25 sec) 

ChampSim completed all CPUs

Region of Interest Statistics

CPU 0 cumulative IPC: 0.631213 instructions: 50000001 cycles: 79212614

CPU 0 Average Load ROB stall cycles: 1.97441e+07
CPU 0 Fraction of times ROB stalled by Loads: 36.5821
CPU 0 Percentage of Load stall cycles in Total stall cycles: 2.77241e+08
Issued all: 27864132
Issued LT all: 22027814
rob_not_full_when_issued_lt_all: 21506578
Issued LT one: 17046827
rob_not_full_when_issued_lt_one: 16592244
 Total stall cycles: 66012221
 Total load stall cycles: 183013190188758
CPU 0 NUM of IPS identified critical: 0
CPU 0 Num of Load IPs stalling ROB: 12173
Threshold modification factor: -1
Max PIST entries: 64
Min PIST entries: 0
Avg PIST entries: 32
Trouble in retire width: 0.895221
MaC = Marked as critical.
lt_50_percent_before_Mac: 0
gt_90_percent_before_Mac: 0
gt_75_percent_before_Mac: 0
gt_50_percent_before_Mac: 0
stall_proportion_bin_same_before_after: 0
stall_proportion_bin_lower_before_after: 0
stall_proportion_bin_upper_before_after: 0
average_stall_proportion_before: -nan
average_stall_proportion_after: -nan
Critical IP stalls, total frequency: 0
Non-critical IP stalls, total frequency: 3390894
Total Freq all stalling IPs: 3390894
stat_90_percent_critical_ip_stalls_freq: 3051939
stat_90_percent_non_critical_ip_stalls_freq: 338955
Critical_IP_ROB_Stalls_Bucket_0: 0
Non-critical_IP_ROB_Stalls_Bucket_0: 2315784
Critical_IP_ROB_Stalls_Bucket_1: 0
Non-critical_IP_ROB_Stalls_Bucket_1: 719509
Critical_IP_ROB_Stalls_Bucket_2: 0
Non-critical_IP_ROB_Stalls_Bucket_2: 242210
Critical_IP_ROB_Stalls_Bucket_3: 0
Non-critical_IP_ROB_Stalls_Bucket_3: 58059
Critical_IP_ROB_Stalls_Bucket_4: 0
Non-critical_IP_ROB_Stalls_Bucket_4: 21058
Critical_IP_ROB_Stalls_Bucket_5: 0
Non-critical_IP_ROB_Stalls_Bucket_5: 10483
Critical_IP_ROB_Stalls_Bucket_6: 0
Non-critical_IP_ROB_Stalls_Bucket_6: 23791
0 => IPs accounting for >50 percent of stalls, 1 => 55, 2 => 60, 3 => 65 and so on till 90.
percent50: 50.0139 num IPs:  434
percent55: 55.0214 num IPs: 616
percent60: 60.011 num IPs: 862
percent65: 65.0137 num IPs: 1121
percent70: 70.0045 num IPs: 1428
percent75: 75.0023 num IPs: 1810
percent80: 80.008 num IPs: 2294
percent85: 85.009 num IPs: 2799
percent90: 90.0044 num IPs: 3353
Critical_ROB_Stalls_Percent_0_Bucket_0: 911165
Non-critical_ROB_Stalls_Percent_0_Bucket_0: 1404619
Critical_ROB_Stalls_Percent_0_Bucket_1: 490021
Non-critical_ROB_Stalls_Percent_0_Bucket_1: 229488
Critical_ROB_Stalls_Percent_0_Bucket_2: 195648
Non-critical_ROB_Stalls_Percent_0_Bucket_2: 46562
Critical_ROB_Stalls_Percent_0_Bucket_3: 50355
Non-critical_ROB_Stalls_Percent_0_Bucket_3: 7704
Critical_ROB_Stalls_Percent_0_Bucket_4: 17842
Non-critical_ROB_Stalls_Percent_0_Bucket_4: 3216
Critical_ROB_Stalls_Percent_0_Bucket_5: 9154
Non-critical_ROB_Stalls_Percent_0_Bucket_5: 1329
Critical_ROB_Stalls_Percent_0_Bucket_6: 21734
Non-critical_ROB_Stalls_Percent_0_Bucket_6: 2057
Critical_ROB_Stalls_Percent_1_Bucket_0: 1033562
Non-critical_ROB_Stalls_Percent_1_Bucket_0: 1282222
Critical_ROB_Stalls_Percent_1_Bucket_1: 524993
Non-critical_ROB_Stalls_Percent_1_Bucket_1: 194516
Critical_ROB_Stalls_Percent_1_Bucket_2: 204516
Non-critical_ROB_Stalls_Percent_1_Bucket_2: 37694
Critical_ROB_Stalls_Percent_1_Bucket_3: 52374
Non-critical_ROB_Stalls_Percent_1_Bucket_3: 5685
Critical_ROB_Stalls_Percent_1_Bucket_4: 18451
Non-critical_ROB_Stalls_Percent_1_Bucket_4: 2607
Critical_ROB_Stalls_Percent_1_Bucket_5: 9246
Non-critical_ROB_Stalls_Percent_1_Bucket_5: 1237
Critical_ROB_Stalls_Percent_1_Bucket_6: 22574
Non-critical_ROB_Stalls_Percent_1_Bucket_6: 1217
Critical_ROB_Stalls_Percent_2_Bucket_0: 1161726
Non-critical_ROB_Stalls_Percent_2_Bucket_0: 1154058
Critical_ROB_Stalls_Percent_2_Bucket_1: 558134
Non-critical_ROB_Stalls_Percent_2_Bucket_1: 161375
Critical_ROB_Stalls_Percent_2_Bucket_2: 211709
Non-critical_ROB_Stalls_Percent_2_Bucket_2: 30501
Critical_ROB_Stalls_Percent_2_Bucket_3: 52895
Non-critical_ROB_Stalls_Percent_2_Bucket_3: 5164
Critical_ROB_Stalls_Percent_2_Bucket_4: 18592
Non-critical_ROB_Stalls_Percent_2_Bucket_4: 2466
Critical_ROB_Stalls_Percent_2_Bucket_5: 9267
Non-critical_ROB_Stalls_Percent_2_Bucket_5: 1216
Critical_ROB_Stalls_Percent_2_Bucket_6: 22590
Non-critical_ROB_Stalls_Percent_2_Bucket_6: 1201
Critical_ROB_Stalls_Percent_3_Bucket_0: 1295578
Non-critical_ROB_Stalls_Percent_3_Bucket_0: 1020206
Critical_ROB_Stalls_Percent_3_Bucket_1: 587324
Non-critical_ROB_Stalls_Percent_3_Bucket_1: 132185
Critical_ROB_Stalls_Percent_3_Bucket_2: 217809
Non-critical_ROB_Stalls_Percent_3_Bucket_2: 24401
Critical_ROB_Stalls_Percent_3_Bucket_3: 53328
Non-critical_ROB_Stalls_Percent_3_Bucket_3: 4731
Critical_ROB_Stalls_Percent_3_Bucket_4: 18637
Non-critical_ROB_Stalls_Percent_3_Bucket_4: 2421
Critical_ROB_Stalls_Percent_3_Bucket_5: 9278
Non-critical_ROB_Stalls_Percent_3_Bucket_5: 1205
Critical_ROB_Stalls_Percent_3_Bucket_6: 22596
Non-critical_ROB_Stalls_Percent_3_Bucket_6: 1195
Critical_ROB_Stalls_Percent_4_Bucket_0: 1431304
Non-critical_ROB_Stalls_Percent_4_Bucket_0: 884480
Critical_ROB_Stalls_Percent_4_Bucket_1: 614319
Non-critical_ROB_Stalls_Percent_4_Bucket_1: 105190
Critical_ROB_Stalls_Percent_4_Bucket_2: 223638
Non-critical_ROB_Stalls_Percent_4_Bucket_2: 18572
Critical_ROB_Stalls_Percent_4_Bucket_3: 53866
Non-critical_ROB_Stalls_Percent_4_Bucket_3: 4193
Critical_ROB_Stalls_Percent_4_Bucket_4: 18692
Non-critical_ROB_Stalls_Percent_4_Bucket_4: 2366
Critical_ROB_Stalls_Percent_4_Bucket_5: 9341
Non-critical_ROB_Stalls_Percent_4_Bucket_5: 1142
Critical_ROB_Stalls_Percent_4_Bucket_6: 22621
Non-critical_ROB_Stalls_Percent_4_Bucket_6: 1170
Critical_ROB_Stalls_Percent_5_Bucket_0: 1573515
Non-critical_ROB_Stalls_Percent_5_Bucket_0: 742269
Critical_ROB_Stalls_Percent_5_Bucket_1: 636009
Non-critical_ROB_Stalls_Percent_5_Bucket_1: 83500
Critical_ROB_Stalls_Percent_5_Bucket_2: 227339
Non-critical_ROB_Stalls_Percent_5_Bucket_2: 14871
Critical_ROB_Stalls_Percent_5_Bucket_3: 55187
Non-critical_ROB_Stalls_Percent_5_Bucket_3: 2872
Critical_ROB_Stalls_Percent_5_Bucket_4: 18999
Non-critical_ROB_Stalls_Percent_5_Bucket_4: 2059
Critical_ROB_Stalls_Percent_5_Bucket_5: 9424
Non-critical_ROB_Stalls_Percent_5_Bucket_5: 1059
Critical_ROB_Stalls_Percent_5_Bucket_6: 22778
Non-critical_ROB_Stalls_Percent_5_Bucket_6: 1013
Critical_ROB_Stalls_Percent_6_Bucket_0: 1718967
Non-critical_ROB_Stalls_Percent_6_Bucket_0: 596817
Critical_ROB_Stalls_Percent_6_Bucket_1: 656647
Non-critical_ROB_Stalls_Percent_6_Bucket_1: 62862
Critical_ROB_Stalls_Percent_6_Bucket_2: 229876
Non-critical_ROB_Stalls_Percent_6_Bucket_2: 12334
Critical_ROB_Stalls_Percent_6_Bucket_3: 55854
Non-critical_ROB_Stalls_Percent_6_Bucket_3: 2205
Critical_ROB_Stalls_Percent_6_Bucket_4: 19330
Non-critical_ROB_Stalls_Percent_6_Bucket_4: 1728
Critical_ROB_Stalls_Percent_6_Bucket_5: 9474
Non-critical_ROB_Stalls_Percent_6_Bucket_5: 1009
Critical_ROB_Stalls_Percent_6_Bucket_6: 22851
Non-critical_ROB_Stalls_Percent_6_Bucket_6: 940
Critical_ROB_Stalls_Percent_7_Bucket_0: 1873146
Non-critical_ROB_Stalls_Percent_7_Bucket_0: 442638
Critical_ROB_Stalls_Percent_7_Bucket_1: 669344
Non-critical_ROB_Stalls_Percent_7_Bucket_1: 50165
Critical_ROB_Stalls_Percent_7_Bucket_2: 231335
Non-critical_ROB_Stalls_Percent_7_Bucket_2: 10875
Critical_ROB_Stalls_Percent_7_Bucket_3: 56234
Non-critical_ROB_Stalls_Percent_7_Bucket_3: 1825
Critical_ROB_Stalls_Percent_7_Bucket_4: 20036
Non-critical_ROB_Stalls_Percent_7_Bucket_4: 1022
Critical_ROB_Stalls_Percent_7_Bucket_5: 9603
Non-critical_ROB_Stalls_Percent_7_Bucket_5: 880
Critical_ROB_Stalls_Percent_7_Bucket_6: 22871
Non-critical_ROB_Stalls_Percent_7_Bucket_6: 920
Critical_ROB_Stalls_Percent_8_Bucket_0: 2018892
Non-critical_ROB_Stalls_Percent_8_Bucket_0: 296892
Critical_ROB_Stalls_Percent_8_Bucket_1: 686693
Non-critical_ROB_Stalls_Percent_8_Bucket_1: 32816
Critical_ROB_Stalls_Percent_8_Bucket_2: 236120
Non-critical_ROB_Stalls_Percent_8_Bucket_2: 6090
Critical_ROB_Stalls_Percent_8_Bucket_3: 56502
Non-critical_ROB_Stalls_Percent_8_Bucket_3: 1557
Critical_ROB_Stalls_Percent_8_Bucket_4: 20276
Non-critical_ROB_Stalls_Percent_8_Bucket_4: 782
Critical_ROB_Stalls_Percent_8_Bucket_5: 10012
Non-critical_ROB_Stalls_Percent_8_Bucket_5: 471
Critical_ROB_Stalls_Percent_8_Bucket_6: 23444
Non-critical_ROB_Stalls_Percent_8_Bucket_6: 347
Average ROB occupancy Load Stall Begin: 39.1716
Average ROB occupancy Load Stall End: 47.4521
Min ROB occupancy Load Stall Begin: 1
Max ROB occupancy Load Stall Begin: 352
Min ROB occupancy Load Stall End: 1
Max ROB occupancy Load Stall End: 352
Average ROB occupancy Critical Load Stall Begin: -nan
Average ROB occupancy Critical Load Stall End: -nan
Min ROB occupancy Critical Load Stall Begin: 400
Max ROB occupancy Critical Load Stall Begin: 0
Min ROB occupancy Critical Load Stall End: 400
Max ROB occupancy Critical Load Stall End: 0
 ROB Load Stall Begin Bucket Count 0: 2554437
 ROB Load Stall End Bucket Count 0: 2315784
 ROB Critical Load Stall Begin Bucket Count 0: 0
 ROB Critical Load Stall End Bucket Count 0: 0
 ROB Load Stall Begin Bucket Count 1: 565971
 ROB Load Stall End Bucket Count 1: 719509
 ROB Critical Load Stall Begin Bucket Count 1: 0
 ROB Critical Load Stall End Bucket Count 1: 0
 ROB Load Stall Begin Bucket Count 2: 179288
 ROB Load Stall End Bucket Count 2: 242210
 ROB Critical Load Stall Begin Bucket Count 2: 0
 ROB Critical Load Stall End Bucket Count 2: 0
 ROB Load Stall Begin Bucket Count 3: 41997
 ROB Load Stall End Bucket Count 3: 58059
 ROB Critical Load Stall Begin Bucket Count 3: 0
 ROB Critical Load Stall End Bucket Count 3: 0
 ROB Load Stall Begin Bucket Count 4: 17108
 ROB Load Stall End Bucket Count 4: 21058
 ROB Critical Load Stall Begin Bucket Count 4: 0
 ROB Critical Load Stall End Bucket Count 4: 0
 ROB Load Stall Begin Bucket Count 5: 9466
 ROB Load Stall End Bucket Count 5: 10483
 ROB Critical Load Stall Begin Bucket Count 5: 0
 ROB Critical Load Stall End Bucket Count 5: 0
 ROB Load Stall Begin Bucket Count 6: 22627
 ROB Load Stall End Bucket Count 6: 23791
 ROB Critical Load Stall Begin Bucket Count 6: 0
 ROB Critical Load Stall End Bucket Count 6: 0
PIST Tag Read Accesses: 2351524
PIST Read Accesses: 1175762
PIST Tag Write Accesses: 2351524
PIST Write Accesses: 1175762
Criticality detector called times: 3233868
Max global_stall_cycles_count: 1973552
Threshold Modified: 1 times, factor: -1
Sturdy critical IP cache stats: 
 Unused entries: 0
CIC Tag Read Accesses: 0
CIC Read Accesses: 0
CIC Tag Write Accesses: 0
CIC Write Accesses: 0
Wobbly critical IP cache stats: 
 Unused entries: 125
CIC Tag Read Accesses: 84303788
CIC Read Accesses: 0
CIC Tag Write Accesses: 3
CIC Write Accesses: 0
ITLB TOTAL     ACCESS:    9904868  HIT:    9287316  MISS:     617552  HIT %:    93.7652  MISS %:    6.23483   MPKI: 12.351
ITLB LOAD TRANSLATION ACCESS:    8072093  HIT:    7983724  MISS:      88369  HIT %:    98.9053  MISS %:    1.09475   MPKI: 1.76738
ITLB TRANSLATION FROM L1D PREFETCHER ACCESS:    1832775  HIT:    1303592  MISS:     529183  HIT %:    71.1267  MISS %:    28.8733   MPKI: 10.5837
ITLB PREFETCH  REQUESTED:          0  ISSUED:          0  USEFUL:     411914  USELESS:     117277
ITLB USEFUL LOAD PREFETCHES:     411914 PREFETCH ISSUED TO LOWER LEVEL:          0  ACCURACY: inf
ITLB TIMELY PREFETCHES:     411914 LATE PREFETCHES: 421 DROPPED PREFETCHES: 2965
ITLB PREFETCHES SAME FILL-ORIGIN LEVEL: 0 DIFFERENT FILL-ORIGIN LEVEL: 0
ITLB AVERAGE MISS LATENCY: 33158.1 cycles
ITLB RQ	ACCESS:   14557862	FORWARD:          0	MERGED:    4611282	TO_CACHE:    9946580

DTLB TOTAL     ACCESS:   11324642  HIT:   10860439  MISS:     464203  HIT %:    95.9009  MISS %:    4.09905   MPKI: 9.28406
DTLB LOAD TRANSLATION ACCESS:   11324642  HIT:   10860439  MISS:     464203  HIT %:    95.9009  MISS %:    4.09905   MPKI: 9.28406
DTLB PREFETCH  REQUESTED:          0  ISSUED:          0  USEFUL:          0  USELESS:          0
DTLB USEFUL LOAD PREFETCHES:          0 PREFETCH ISSUED TO LOWER LEVEL:          0  ACCURACY: -nan
DTLB TIMELY PREFETCHES:          0 LATE PREFETCHES: 0 DROPPED PREFETCHES: 0
DTLB PREFETCHES SAME FILL-ORIGIN LEVEL: 0 DIFFERENT FILL-ORIGIN LEVEL: 0
DTLB AVERAGE MISS LATENCY: 9.39632 cycles
DTLB RQ	ACCESS:   14775413	FORWARD:          0	MERGED:    3423362	TO_CACHE:   11352051

STLB TOTAL     ACCESS:    1110732  HIT:    1107720  MISS:       3012  HIT %:    99.7288  MISS %:   0.271173   MPKI: 0.06024
STLB LOAD TRANSLATION ACCESS:     552151  HIT:     549390  MISS:       2761  HIT %:       99.5  MISS %:   0.500044   MPKI: 0.05522
STLB TRANSLATION FROM L1D PREFETCHER ACCESS:     558581  HIT:     558330  MISS:        251  HIT %:    99.9551  MISS %:  0.0449353   MPKI: 0.00502
STLB PREFETCH  REQUESTED:          0  ISSUED:          0  USEFUL:        193  USELESS:         57
STLB USEFUL LOAD PREFETCHES:        193 PREFETCH ISSUED TO LOWER LEVEL:          0  ACCURACY: inf
STLB TIMELY PREFETCHES:        193 LATE PREFETCHES: 0 DROPPED PREFETCHES: 2965
STLB PREFETCHES SAME FILL-ORIGIN LEVEL: 0 DIFFERENT FILL-ORIGIN LEVEL: 0
STLB AVERAGE MISS LATENCY: 66.5578 cycles
STLB RQ	ACCESS:    1121607	FORWARD:          0	MERGED:       7910	TO_CACHE:    1113697

STLB Hit, L1D data hit: 0
STLB Hit, L2C data hit: 0
STLB Hit, LLC data hit: 0
STLB Hit, LLC data miss: 0
STLB STLB hints to L2: 0
L1D TOTAL     ACCESS:   14307236  HIT:   13311061  MISS:     996175  HIT %:    93.0373  MISS %:    6.96274   MPKI: 19.9235
L1D LOAD      ACCESS:    8033954  HIT:    7329108  MISS:     704846  HIT %:    91.2267  MISS %:    8.77334   MPKI: 14.0969
L1D RFO       ACCESS:    6243047  HIT:    5962360  MISS:     280687  HIT %:     95.504  MISS %:    4.49599   MPKI: 5.61374
L1D PREFETCH  ACCESS:      30235  HIT:      19593  MISS:      10642  HIT %:    64.8024  MISS %:    35.1976   MPKI: 0.21284
L1D PREFETCH  REQUESTED:      73785  ISSUED:      73785  USEFUL:       6286  USELESS:       4412
L1D USEFUL LOAD PREFETCHES:       6286 PREFETCH ISSUED TO LOWER LEVEL:      14857  ACCURACY: 42.31
L1D TIMELY PREFETCHES:       6286 LATE PREFETCHES: 4202 DROPPED PREFETCHES: 0
L1D PREFETCHES SAME FILL-ORIGIN LEVEL: 14857 DIFFERENT FILL-ORIGIN LEVEL: 0
L1D AVERAGE MISS LATENCY: 165772 cycles
L1D RQ	ACCESS:   11545042	FORWARD:          0	MERGED:    3345624	TO_CACHE:    8071021
L1D WQ	ACCESS:    6771059	FORWARD:     128408	MERGED:      66667	TO_CACHE:    6704392
L1D PQ	ACCESS:      36898	FORWARD:          0	MERGED:          0	TO_CACHE:      36887

L1D UNIQUE REGIONS ACCESSED: 0
L1D REGIONS CONFLICTS: 0
L1D Cross Page Prefetch Requests: 0
L1D Same Page Prefetch Requests: 520095
L1D ROI Sum of L1D PQ occupancy: 556938
L1D PREFETCHES PUSHED FROM L2C: 0
L1I TOTAL     ACCESS:   14409520  HIT:   10625107  MISS:    3784413  HIT %:    73.7367  MISS %:    26.2633   MPKI: 75.6883
L1I LOAD      ACCESS:    9398277  HIT:    9123000  MISS:     275277  HIT %:     97.071  MISS %:    2.92902   MPKI: 5.50554
L1I PREFETCH  ACCESS:    5011243  HIT:    1502107  MISS:    3509136  HIT %:    29.9747  MISS %:    70.0253   MPKI: 70.1827
L1I PREFETCH  REQUESTED:    5263089  ISSUED:    5250388  USEFUL:    2351608  USELESS:    1157531
L1I USEFUL LOAD PREFETCHES:    2351608 PREFETCH ISSUED TO LOWER LEVEL:    3541356  ACCURACY: 66.4042
L1I TIMELY PREFETCHES:    2351608 LATE PREFETCHES: 32216 DROPPED PREFETCHES: 7820
L1I PREFETCHES SAME FILL-ORIGIN LEVEL: 3541356 DIFFERENT FILL-ORIGIN LEVEL: 0
L1I AVERAGE MISS LATENCY: 448871 cycles
L1I RQ	ACCESS:   13467362	FORWARD:          0	MERGED:    4044156	TO_CACHE:    9423206
L1I PQ	ACCESS:    5250388	FORWARD:          0	MERGED:     115732	TO_CACHE:    5134656

BTB TOTAL     ACCESS:    6210937  HIT:    4468588  MISS:    1742349  HIT %:    71.9471  MISS %:    28.0529   MPKI: 34.847
BTB BRANCH_DIRECT_JUMP	ACCESS:     566815  HIT:     417590  MISS:     149225
BTB BRANCH_INDIRECT	ACCESS:     197171  HIT:     163808  MISS:      33363
BTB BRANCH_CONDITIONAL	ACCESS:    3373175  HIT:    2911629  MISS:     461546
BTB BRANCH_DIRECT_CALL	ACCESS:     876400  HIT:     531836  MISS:     344564
BTB BRANCH_INDIRECT_CALL	ACCESS:     160491  HIT:      90228  MISS:      70263
BTB BRANCH_RETURN	ACCESS:    1036885  HIT:     353497  MISS:     683388
BTB BRANCH_OTHER ACCESS:          0  HIT:          0  MISS:          0

L2C TOTAL     ACCESS:    5283608  HIT:    4714124  MISS:     569484  HIT %:    89.2217  MISS %:    10.7783   MPKI: 11.3897
L2C LOAD      ACCESS:     943680  HIT:     770154  MISS:     173526  HIT %:    81.6118  MISS %:    18.3882   MPKI: 3.47052
L2C DATA LOAD MPKI: 2.81668
L2C INSTRUCTION LOAD MPKI: 0.65384
L2C RFO       ACCESS:     280669  HIT:     202016  MISS:      78653  HIT %:    71.9766  MISS %:    28.0234   MPKI: 1.57306
L2C PREFETCH  ACCESS:    3582669  HIT:    3296337  MISS:     286332  HIT %:    92.0079  MISS %:    7.99214   MPKI: 5.72664
L2C DATA PREFETCH MPKI: 0.35514
L2C INSTRUCTION PREFETCH MPKI: 5.3715
L2C WRITEBACK ACCESS:     468088  HIT:     439281  MISS:      28807  HIT %:    93.8458  MISS %:    6.15418   MPKI: 0.57614
L2C LOAD TRANSLATION ACCESS:       3026  HIT:       1031  MISS:       1995  HIT %:    34.0714  MISS %:    65.9286   MPKI: 0.0399
L2C TRANSLATION FROM L1D PREFETCHER ACCESS:       5476  HIT:       5305  MISS:        171  HIT %:    96.8773  MISS %:    3.12272   MPKI: 0.00342
L2C PREFETCH  REQUESTED:      38521  ISSUED:      38521  USEFUL:       9029  USELESS:     278650
L2C USEFUL LOAD PREFETCHES:       9029 PREFETCH ISSUED TO LOWER LEVEL:     286442  ACCURACY: 3.15212
L2C TIMELY PREFETCHES:       9029 LATE PREFETCHES: 107 DROPPED PREFETCHES: 0
L2C PREFETCHES SAME FILL-ORIGIN LEVEL: 7104 DIFFERENT FILL-ORIGIN LEVEL: 0
L2C AVERAGE MISS LATENCY: 40.6475 cycles
L2C RQ	ACCESS:    1232881	FORWARD:          0	MERGED:          0	TO_CACHE:    1232851
L2C WQ	ACCESS:     468088	FORWARD:         32	MERGED:          0	TO_CACHE:     468088
L2C PQ	ACCESS:    3594734	FORWARD:          0	MERGED:      11415	TO_CACHE:    3583317

L2C Instructions Evicting Data 133314
L2C Translations Evicting Data 1343
L2C Data Evicting Data 119356
L2C Instructions Evicting Instructions 167146
L2C Translations Evicting Instructions 804
L2C Data Evicting Instructions 116595
L2C Instructions Evicting Translations 807
L2C Translations Evicting Translations 19
L2C Data Evicting Translations 1293
L2C Dense regions hint from L2: 0
PSCL5 TOTAL     ACCESS:       5977  HIT:       5977  MISS:          0  HIT %:        100  MISS %:          0   MPKI: 0
PSCL5 LOAD TRANSLATION ACCESS:       2761  HIT:       2761  MISS:          0  HIT %:        100  MISS %:          0   MPKI: 0
PSCL5 TRANSLATION FROM L1D PREFETCHER ACCESS:       3216  HIT:       3216  MISS:          0  HIT %:        100  MISS %:          0   MPKI: 0
PSCL5 PREFETCH  REQUESTED:          0  ISSUED:          0  USEFUL:          0  USELESS:          0
PSCL5 USEFUL LOAD PREFETCHES:          0 PREFETCH ISSUED TO LOWER LEVEL:          0  ACCURACY: -nan
PSCL5 TIMELY PREFETCHES:          0 LATE PREFETCHES: 0 DROPPED PREFETCHES: 0
PSCL5 PREFETCHES SAME FILL-ORIGIN LEVEL: 0 DIFFERENT FILL-ORIGIN LEVEL: 0

PSCL4 TOTAL     ACCESS:       5874  HIT:       5868  MISS:          6  HIT %:    99.8979  MISS %:   0.102145   MPKI: 0.00012
PSCL4 LOAD TRANSLATION ACCESS:       2661  HIT:       2655  MISS:          6  HIT %:    99.7745  MISS %:   0.225479   MPKI: 0.00012
PSCL4 TRANSLATION FROM L1D PREFETCHER ACCESS:       3213  HIT:       3213  MISS:          0  HIT %:        100  MISS %:          0   MPKI: 0
PSCL4 PREFETCH  REQUESTED:          0  ISSUED:          0  USEFUL:          0  USELESS:          0
PSCL4 USEFUL LOAD PREFETCHES:          0 PREFETCH ISSUED TO LOWER LEVEL:          0  ACCURACY: -nan
PSCL4 TIMELY PREFETCHES:          0 LATE PREFETCHES: 0 DROPPED PREFETCHES: 0
PSCL4 PREFETCHES SAME FILL-ORIGIN LEVEL: 0 DIFFERENT FILL-ORIGIN LEVEL: 0

PSCL3 TOTAL     ACCESS:       5975  HIT:       5969  MISS:          6  HIT %:    99.8996  MISS %:   0.100418   MPKI: 0.00012
PSCL3 LOAD TRANSLATION ACCESS:       2762  HIT:       2756  MISS:          6  HIT %:    99.7828  MISS %:   0.217234   MPKI: 0.00012
PSCL3 TRANSLATION FROM L1D PREFETCHER ACCESS:       3213  HIT:       3213  MISS:          0  HIT %:        100  MISS %:          0   MPKI: 0
PSCL3 PREFETCH  REQUESTED:          0  ISSUED:          0  USEFUL:          0  USELESS:          0
PSCL3 USEFUL LOAD PREFETCHES:          0 PREFETCH ISSUED TO LOWER LEVEL:          0  ACCURACY: -nan
PSCL3 TIMELY PREFETCHES:          0 LATE PREFETCHES: 0 DROPPED PREFETCHES: 0
PSCL3 PREFETCHES SAME FILL-ORIGIN LEVEL: 0 DIFFERENT FILL-ORIGIN LEVEL: 0

PSCL2 TOTAL     ACCESS:       3757  HIT:       3467  MISS:        290  HIT %:    92.2811  MISS %:    7.71892   MPKI: 0.0058
PSCL2 LOAD TRANSLATION ACCESS:       2795  HIT:       2505  MISS:        290  HIT %:    89.6243  MISS %:    10.3757   MPKI: 0.0058
PSCL2 TRANSLATION FROM L1D PREFETCHER ACCESS:        962  HIT:        962  MISS:          0  HIT %:        100  MISS %:          0   MPKI: 0
PSCL2 PREFETCH  REQUESTED:          0  ISSUED:          0  USEFUL:          0  USELESS:          0
PSCL2 USEFUL LOAD PREFETCHES:          0 PREFETCH ISSUED TO LOWER LEVEL:          0  ACCURACY: -nan
PSCL2 TIMELY PREFETCHES:          0 LATE PREFETCHES: 0 DROPPED PREFETCHES: 0
PSCL2 PREFETCHES SAME FILL-ORIGIN LEVEL: 0 DIFFERENT FILL-ORIGIN LEVEL: 0

LLC TOTAL     ACCESS:     650744  HIT:     609905  MISS:      40839  HIT %:    93.7243  MISS %:    6.27574   MPKI: 0.81678
LLC LOAD      ACCESS:     173425  HIT:     160403  MISS:      13022  HIT %:    92.4913  MISS %:    7.50872   MPKI: 0.26044
LLC RFO       ACCESS:      78644  HIT:      56020  MISS:      22624  HIT %:    71.2324  MISS %:    28.7676   MPKI: 0.45248
LLC PREFETCH  ACCESS:     286439  HIT:     281821  MISS:       4618  HIT %:    98.3878  MISS %:    1.61221   MPKI: 0.09236
LLC WRITEBACK ACCESS:     110070  HIT:     109724  MISS:        346  HIT %:    99.6857  MISS %:   0.314345   MPKI: 0.00692
LLC LOAD TRANSLATION ACCESS:       1995  HIT:       1786  MISS:        209  HIT %:    89.5238  MISS %:    10.4762   MPKI: 0.00418
LLC TRANSLATION FROM L1D PREFETCHER ACCESS:        171  HIT:        151  MISS:         20  HIT %:    88.3041  MISS %:    11.6959   MPKI: 0.0004
LLC PREFETCH  REQUESTED:          0  ISSUED:          0  USEFUL:       1294  USELESS:      10107
LLC USEFUL LOAD PREFETCHES:       1294 PREFETCH ISSUED TO LOWER LEVEL:       4618  ACCURACY: 28.0208
LLC TIMELY PREFETCHES:       1294 LATE PREFETCHES: 0 DROPPED PREFETCHES: 0
LLC PREFETCHES SAME FILL-ORIGIN LEVEL: 0 DIFFERENT FILL-ORIGIN LEVEL: 0
LLC AVERAGE MISS LATENCY: 168.895 cycles
LLC RQ	ACCESS:     254238	FORWARD:          0	MERGED:          0	TO_CACHE:     254235
LLC WQ	ACCESS:     110070	FORWARD:          3	MERGED:          0	TO_CACHE:     110070
LLC PQ	ACCESS:     286442	FORWARD:          0	MERGED:          0	TO_CACHE:     286442

LLC Dense regions hint to LLC: 0

RAW hits: 925029
Loads Generated: 12470071
Loads sent to L1D: 11545042
Stores Generated: 6771037
Stores sent to L1D: 6771059
Major fault: 0 Minor fault: 2466
Allocated PAGES: 2466
I-Shadow cache 408 bytes
Touched + WorthPF tables 6144 bytes 
MMA filter 174 bytes 
FNL filter 272 bytes 
TOTAL PREFETCHER STORAGE SIZE: 25174 bytes
CPU 0 L1I next line prefetcher final stats

stream: 
stream:times selected: 1535277
stream:pref_filled: 72418
stream:pref_useful: 24479
stream:pref_late: 6401
stream:misses: 11160
stream:misses_by_poll: 0

CS: 
CS:times selected: 253178
CS:pref_filled: 54589
CS:pref_useful: 40474
CS:pref_late: 5015
CS:misses: 53113
CS:misses_by_poll: 4

CPLX: 
CPLX:times selected: 1280320
CPLX:pref_filled: 28414
CPLX:pref_useful: 18224
CPLX:pref_late: 1903
CPLX:misses: 136101
CPLX:misses_by_poll: 0

NL_L1: 
NL:times selected: 8739
NL:pref_filled: 262
NL:pref_useful: 61
NL:pref_late: 8
NL:misses: 434
NL:misses_by_poll: 0

total selections: 3077514
total_filled: 10642
total_useful: 6286
total_late: 14517
total_polluted: 4
total_misses_after_warmup: 741916
conflicts: 3150431
Degree Incremented Times: 10
Degree Decremented Times: 213057

L1 IP Table Write Accesses: 4696152
L1 IP Table Read Accesses: 1545721
L1 RST Write Accesses: 764322
L1 RST Read Accesses: 1528644
L1 CSPT Write Accesses: 764322
L1 CSPT Read Accesses: 1391396
L1 RR Filter Tag Write Accesses: 36898
L1 RR Filter Tag Read Accesses: 4696152
L1 IP Table Tag Write Accesses: 8071024
L1 IP Table Tag Read Accesses: 8071024
L1 RST Tag Write Accesses: 0
L1 RST Tag Read Accesses: 5126989
L1 RR Filter Write Accesses: 0
L1 RR Filter Read Accesses: 170277
test: 182718
L2 IP Table Read Accesses: 4429016
L2 IP Table Write Accesses: 8307541
L2 IP Table Tag Read Accesses: 4252344
L2 IP Table Tag Write Accesses: 4252344

DRAM Statistics
 CHANNEL 0
 RQ ROW_BUFFER_HIT:      15571  ROW_BUFFER_MISS:      24916
 DBUS_CONGESTED:          6
 WQ ROW_BUFFER_HIT:       2429  ROW_BUFFER_MISS:      19240  FULL:          0

 AVG_CONGESTED_CYCLE: 5
 All warmup complete: 2
Channel 0 Bank busy for read cycles: 0
Channel 0 Bank busy for write cycles: 0
Channel 0
Rank 0
0banks busy for read cycles: 75272360
0banks busy for write cycles: 4451
1banks busy for read cycles: 1712478
1banks busy for write cycles: 616398
2banks busy for read cycles: 259105
2banks busy for write cycles: 213355
3banks busy for read cycles: 79769
3banks busy for write cycles: 136845
4banks busy for read cycles: 52977
4banks busy for write cycles: 114848
5banks busy for read cycles: 40516
5banks busy for write cycles: 111610
6banks busy for read cycles: 42306
6banks busy for write cycles: 94058
7banks busy for read cycles: 50953
7banks busy for write cycles: 98740
8banks busy for read cycles: 132371
8banks busy for write cycles: 179475

CPU 0 Branch Prediction Accuracy: 99.7477% MPKI: 0.46156 Average ROB Occupancy at Mispredict: 73.2109
Branch types
NOT_BRANCH: 40853615 81.7072%
BRANCH_DIRECT_JUMP: 566815 1.13363%
BRANCH_INDIRECT: 197171 0.394342%
BRANCH_CONDITIONAL: 6308407 12.6168%
BRANCH_DIRECT_CALL: 876400 1.7528%
BRANCH_INDIRECT_CALL: 160491 0.320982%
BRANCH_RETURN: 1036885 2.07377%
BRANCH_OTHER: 0 0%

DRAM PAGES: 1048576
Allocated PAGES: 2466
