
*** ChampSim Multicore Out-of-Order Simulator ***

Warmup Instructions: 50000000
Simulation Instructions: 50000000
Number of CPUs: 1
LLC sets: 2048
LLC ways: 16
Off-chip DRAM Size: 4096 MB Channels: 1 Width: 64-bit Data Rate: 6400 MT/s
CPU 0 runs ../IPC-traces//server_038.champsimtrace.xz
.xz
NUM_OF_IPS_IN_CRITICAL_IP_TRAINING: 64
NUM_OF_CRITICAL_IP_TRAINING_TABLE_WAYS: 2
NUM_OF_CRITICAL_IP_TRAINING_TABLE_SETS: 32
WOBBLY_CRITICAL_IP_CACHE_SETS: 32
WOBBLY_CRITICAL_IP_CACHE_WAYS: 4
BTB has LRU replacement policy
ITLB has LRU replacement policy
DTLB has LRU replacement policy
STLB has LRU replacement policy
CPU 0 L1I next line prefetcher
L1I has LRU replacement policy
L1D has LRU replacement policy
Bingo PHT WAYS: 16 and PHT_SIZE: 16384
Initialize SRRIP state for L2C
Initialize DRRIP state for LLC
Heartbeat CPU 0 instructions: 10000001 cycles: 2750109 heartbeat IPC: 3.63622 cumulative IPC: 3.63622 (Simulation time: 0 hr 3 min 26 sec) 
Heartbeat CPU 0 instructions: 20000001 cycles: 5498891 heartbeat IPC: 3.63797 cumulative IPC: 3.6371 (Simulation time: 0 hr 6 min 3 sec) 
Heartbeat CPU 0 instructions: 30000003 cycles: 8245592 heartbeat IPC: 3.64073 cumulative IPC: 3.63831 (Simulation time: 0 hr 8 min 30 sec) 
Heartbeat CPU 0 instructions: 40000001 cycles: 10993886 heartbeat IPC: 3.63862 cumulative IPC: 3.63839 (Simulation time: 0 hr 10 min 35 sec) 
Heartbeat CPU 0 instructions: 50000003 cycles: 13742642 heartbeat IPC: 3.63801 cumulative IPC: 3.63831 (Simulation time: 0 hr 12 min 30 sec) 

Warmup complete CPU 0 instructions: 50000003 cycles: 13742642 (Simulation time: 0 hr 12 min 30 sec) 

Heartbeat CPU 0 instructions: 60000000 cycles: 25246165 heartbeat IPC: 0.869299 cumulative IPC: 0.869299 (Simulation time: 0 hr 14 min 44 sec) 
Heartbeat CPU 0 instructions: 70000001 cycles: 36670393 heartbeat IPC: 0.875333 cumulative IPC: 0.872305 (Simulation time: 0 hr 16 min 52 sec) 
Heartbeat CPU 0 instructions: 80000002 cycles: 48108481 heartbeat IPC: 0.874272 cumulative IPC: 0.87296 (Simulation time: 0 hr 19 min 5 sec) 
Heartbeat CPU 0 instructions: 90000001 cycles: 59537702 heartbeat IPC: 0.87495 cumulative IPC: 0.873457 (Simulation time: 0 hr 21 min 16 sec) 
*** Reached end of trace for Core: 0 Repeating trace: ../IPC-traces//server_038.champsimtrace.xz
Heartbeat CPU 0 instructions: 100000002 cycles: 70980719 heartbeat IPC: 0.873895 cumulative IPC: 0.873544 (Simulation time: 0 hr 23 min 10 sec) 
Finished CPU 0 instructions: 50000003 cycles: 57238078 cumulative IPC: 0.873544 (Simulation time: 0 hr 23 min 10 sec) 

ChampSim completed all CPUs

Region of Interest Statistics

CPU 0 cumulative IPC: 0.873544 instructions: 50000003 cycles: 57238078

CPU 0 Average Load ROB stall cycles: 1.4704e+07
CPU 0 Fraction of times ROB stalled by Loads: 34.6989
CPU 0 Percentage of Load stall cycles in Total stall cycles: 2.26273e+08
Issued all: 25184390
Issued LT all: 19441835
rob_not_full_when_issued_lt_all: 19273757
Issued LT one: 14441427
rob_not_full_when_issued_lt_one: 14286239
 Total stall cycles: 45585663
 Total load stall cycles: 103148270046237
CPU 0 NUM of IPS identified critical: 0
CPU 0 Num of Load IPs stalling ROB: 4297
Threshold modification factor: 0
Max PIST entries: 64
Min PIST entries: 0
Avg PIST entries: 32
Trouble in retire width: 0.810622
MaC = Marked as critical.
lt_50_percent_before_Mac: 0
gt_90_percent_before_Mac: 0
gt_75_percent_before_Mac: 0
gt_50_percent_before_Mac: 0
stall_proportion_bin_same_before_after: 0
stall_proportion_bin_lower_before_after: 0
stall_proportion_bin_upper_before_after: 0
average_stall_proportion_before: -nan
average_stall_proportion_after: -nan
Critical IP stalls, total frequency: 0
Non-critical IP stalls, total frequency: 2434123
Total Freq all stalling IPs: 2434123
stat_90_percent_critical_ip_stalls_freq: 2190968
stat_90_percent_non_critical_ip_stalls_freq: 243155
Critical_IP_ROB_Stalls_Bucket_0: 0
Non-critical_IP_ROB_Stalls_Bucket_0: 1092983
Critical_IP_ROB_Stalls_Bucket_1: 0
Non-critical_IP_ROB_Stalls_Bucket_1: 889228
Critical_IP_ROB_Stalls_Bucket_2: 0
Non-critical_IP_ROB_Stalls_Bucket_2: 320131
Critical_IP_ROB_Stalls_Bucket_3: 0
Non-critical_IP_ROB_Stalls_Bucket_3: 90774
Critical_IP_ROB_Stalls_Bucket_4: 0
Non-critical_IP_ROB_Stalls_Bucket_4: 19809
Critical_IP_ROB_Stalls_Bucket_5: 0
Non-critical_IP_ROB_Stalls_Bucket_5: 13005
Critical_IP_ROB_Stalls_Bucket_6: 0
Non-critical_IP_ROB_Stalls_Bucket_6: 8193
0 => IPs accounting for >50 percent of stalls, 1 => 55, 2 => 60, 3 => 65 and so on till 90.
percent50: 50.0859 num IPs:  244
percent55: 55.0363 num IPs: 282
percent60: 60.0678 num IPs: 321
percent65: 65.124 num IPs: 361
percent70: 70.1036 num IPs: 402
percent75: 75.1025 num IPs: 446
percent80: 80.0106 num IPs: 494
percent85: 85.0056 num IPs: 551
percent90: 90.0105 num IPs: 642
Critical_ROB_Stalls_Percent_0_Bucket_0: 518966
Non-critical_ROB_Stalls_Percent_0_Bucket_0: 574017
Critical_ROB_Stalls_Percent_0_Bucket_1: 442165
Non-critical_ROB_Stalls_Percent_0_Bucket_1: 447063
Critical_ROB_Stalls_Percent_0_Bucket_2: 184824
Non-critical_ROB_Stalls_Percent_0_Bucket_2: 135307
Critical_ROB_Stalls_Percent_0_Bucket_3: 45204
Non-critical_ROB_Stalls_Percent_0_Bucket_3: 45570
Critical_ROB_Stalls_Percent_0_Bucket_4: 13400
Non-critical_ROB_Stalls_Percent_0_Bucket_4: 6409
Critical_ROB_Stalls_Percent_0_Bucket_5: 10588
Non-critical_ROB_Stalls_Percent_0_Bucket_5: 2417
Critical_ROB_Stalls_Percent_0_Bucket_6: 4007
Non-critical_ROB_Stalls_Percent_0_Bucket_6: 4186
Critical_ROB_Stalls_Percent_1_Bucket_0: 558982
Non-critical_ROB_Stalls_Percent_1_Bucket_0: 534001
Critical_ROB_Stalls_Percent_1_Bucket_1: 506728
Non-critical_ROB_Stalls_Percent_1_Bucket_1: 382500
Critical_ROB_Stalls_Percent_1_Bucket_2: 198692
Non-critical_ROB_Stalls_Percent_1_Bucket_2: 121439
Critical_ROB_Stalls_Percent_1_Bucket_3: 46010
Non-critical_ROB_Stalls_Percent_1_Bucket_3: 44764
Critical_ROB_Stalls_Percent_1_Bucket_4: 14643
Non-critical_ROB_Stalls_Percent_1_Bucket_4: 5166
Critical_ROB_Stalls_Percent_1_Bucket_5: 10590
Non-critical_ROB_Stalls_Percent_1_Bucket_5: 2415
Critical_ROB_Stalls_Percent_1_Bucket_6: 4007
Non-critical_ROB_Stalls_Percent_1_Bucket_6: 4186
Critical_ROB_Stalls_Percent_2_Bucket_0: 598130
Non-critical_ROB_Stalls_Percent_2_Bucket_0: 494853
Critical_ROB_Stalls_Percent_2_Bucket_1: 563487
Non-critical_ROB_Stalls_Percent_2_Bucket_1: 325741
Critical_ROB_Stalls_Percent_2_Bucket_2: 216423
Non-critical_ROB_Stalls_Percent_2_Bucket_2: 103708
Critical_ROB_Stalls_Percent_2_Bucket_3: 54504
Non-critical_ROB_Stalls_Percent_2_Bucket_3: 36270
Critical_ROB_Stalls_Percent_2_Bucket_4: 14839
Non-critical_ROB_Stalls_Percent_2_Bucket_4: 4970
Critical_ROB_Stalls_Percent_2_Bucket_5: 10712
Non-critical_ROB_Stalls_Percent_2_Bucket_5: 2293
Critical_ROB_Stalls_Percent_2_Bucket_6: 4029
Non-critical_ROB_Stalls_Percent_2_Bucket_6: 4164
Critical_ROB_Stalls_Percent_3_Bucket_0: 658000
Non-critical_ROB_Stalls_Percent_3_Bucket_0: 434983
Critical_ROB_Stalls_Percent_3_Bucket_1: 606280
Non-critical_ROB_Stalls_Percent_3_Bucket_1: 282948
Critical_ROB_Stalls_Percent_3_Bucket_2: 231488
Non-critical_ROB_Stalls_Percent_3_Bucket_2: 88643
Critical_ROB_Stalls_Percent_3_Bucket_3: 59428
Non-critical_ROB_Stalls_Percent_3_Bucket_3: 31346
Critical_ROB_Stalls_Percent_3_Bucket_4: 15149
Non-critical_ROB_Stalls_Percent_3_Bucket_4: 4660
Critical_ROB_Stalls_Percent_3_Bucket_5: 10749
Non-critical_ROB_Stalls_Percent_3_Bucket_5: 2256
Critical_ROB_Stalls_Percent_3_Bucket_6: 4105
Non-critical_ROB_Stalls_Percent_3_Bucket_6: 4088
Critical_ROB_Stalls_Percent_4_Bucket_0: 705100
Non-critical_ROB_Stalls_Percent_4_Bucket_0: 387883
Critical_ROB_Stalls_Percent_4_Bucket_1: 654171
Non-critical_ROB_Stalls_Percent_4_Bucket_1: 235057
Critical_ROB_Stalls_Percent_4_Bucket_2: 251594
Non-critical_ROB_Stalls_Percent_4_Bucket_2: 68537
Critical_ROB_Stalls_Percent_4_Bucket_3: 65234
Non-critical_ROB_Stalls_Percent_4_Bucket_3: 25540
Critical_ROB_Stalls_Percent_4_Bucket_4: 15439
Non-critical_ROB_Stalls_Percent_4_Bucket_4: 4370
Critical_ROB_Stalls_Percent_4_Bucket_5: 10766
Non-critical_ROB_Stalls_Percent_4_Bucket_5: 2239
Critical_ROB_Stalls_Percent_4_Bucket_6: 4105
Non-critical_ROB_Stalls_Percent_4_Bucket_6: 4088
Critical_ROB_Stalls_Percent_5_Bucket_0: 784439
Non-critical_ROB_Stalls_Percent_5_Bucket_0: 308544
Critical_ROB_Stalls_Percent_5_Bucket_1: 691944
Non-critical_ROB_Stalls_Percent_5_Bucket_1: 197284
Critical_ROB_Stalls_Percent_5_Bucket_2: 253589
Non-critical_ROB_Stalls_Percent_5_Bucket_2: 66542
Critical_ROB_Stalls_Percent_5_Bucket_3: 67378
Non-critical_ROB_Stalls_Percent_5_Bucket_3: 23396
Critical_ROB_Stalls_Percent_5_Bucket_4: 15834
Non-critical_ROB_Stalls_Percent_5_Bucket_4: 3975
Critical_ROB_Stalls_Percent_5_Bucket_5: 10797
Non-critical_ROB_Stalls_Percent_5_Bucket_5: 2208
Critical_ROB_Stalls_Percent_5_Bucket_6: 4106
Non-critical_ROB_Stalls_Percent_5_Bucket_6: 4087
Critical_ROB_Stalls_Percent_6_Bucket_0: 843288
Non-critical_ROB_Stalls_Percent_6_Bucket_0: 249695
Critical_ROB_Stalls_Percent_6_Bucket_1: 734266
Non-critical_ROB_Stalls_Percent_6_Bucket_1: 154962
Critical_ROB_Stalls_Percent_6_Bucket_2: 266967
Non-critical_ROB_Stalls_Percent_6_Bucket_2: 53164
Critical_ROB_Stalls_Percent_6_Bucket_3: 71648
Non-critical_ROB_Stalls_Percent_6_Bucket_3: 19126
Critical_ROB_Stalls_Percent_6_Bucket_4: 16212
Non-critical_ROB_Stalls_Percent_6_Bucket_4: 3597
Critical_ROB_Stalls_Percent_6_Bucket_5: 11037
Non-critical_ROB_Stalls_Percent_6_Bucket_5: 1968
Critical_ROB_Stalls_Percent_6_Bucket_6: 4139
Non-critical_ROB_Stalls_Percent_6_Bucket_6: 4054
Critical_ROB_Stalls_Percent_7_Bucket_0: 919114
Non-critical_ROB_Stalls_Percent_7_Bucket_0: 173869
Critical_ROB_Stalls_Percent_7_Bucket_1: 764385
Non-critical_ROB_Stalls_Percent_7_Bucket_1: 124843
Critical_ROB_Stalls_Percent_7_Bucket_2: 276734
Non-critical_ROB_Stalls_Percent_7_Bucket_2: 43397
Critical_ROB_Stalls_Percent_7_Bucket_3: 74100
Non-critical_ROB_Stalls_Percent_7_Bucket_3: 16674
Critical_ROB_Stalls_Percent_7_Bucket_4: 16444
Non-critical_ROB_Stalls_Percent_7_Bucket_4: 3365
Critical_ROB_Stalls_Percent_7_Bucket_5: 12254
Non-critical_ROB_Stalls_Percent_7_Bucket_5: 751
Critical_ROB_Stalls_Percent_7_Bucket_6: 6111
Non-critical_ROB_Stalls_Percent_7_Bucket_6: 2082
Critical_ROB_Stalls_Percent_8_Bucket_0: 986280
Non-critical_ROB_Stalls_Percent_8_Bucket_0: 106703
Critical_ROB_Stalls_Percent_8_Bucket_1: 802334
Non-critical_ROB_Stalls_Percent_8_Bucket_1: 86894
Critical_ROB_Stalls_Percent_8_Bucket_2: 287310
Non-critical_ROB_Stalls_Percent_8_Bucket_2: 32821
Critical_ROB_Stalls_Percent_8_Bucket_3: 78452
Non-critical_ROB_Stalls_Percent_8_Bucket_3: 12322
Critical_ROB_Stalls_Percent_8_Bucket_4: 16658
Non-critical_ROB_Stalls_Percent_8_Bucket_4: 3151
Critical_ROB_Stalls_Percent_8_Bucket_5: 12400
Non-critical_ROB_Stalls_Percent_8_Bucket_5: 605
Critical_ROB_Stalls_Percent_8_Bucket_6: 7534
Non-critical_ROB_Stalls_Percent_8_Bucket_6: 659
Average ROB occupancy Load Stall Begin: 54.5332
Average ROB occupancy Load Stall End: 65.9684
Min ROB occupancy Load Stall Begin: 1
Max ROB occupancy Load Stall Begin: 352
Min ROB occupancy Load Stall End: 1
Max ROB occupancy Load Stall End: 352
Average ROB occupancy Critical Load Stall Begin: -nan
Average ROB occupancy Critical Load Stall End: -nan
Min ROB occupancy Critical Load Stall Begin: 400
Max ROB occupancy Critical Load Stall Begin: 0
Min ROB occupancy Critical Load Stall End: 400
Max ROB occupancy Critical Load Stall End: 0
 ROB Load Stall Begin Bucket Count 0: 1422024
 ROB Load Stall End Bucket Count 0: 1092983
 ROB Critical Load Stall Begin Bucket Count 0: 0
 ROB Critical Load Stall End Bucket Count 0: 0
 ROB Load Stall Begin Bucket Count 1: 695438
 ROB Load Stall End Bucket Count 1: 889228
 ROB Critical Load Stall Begin Bucket Count 1: 0
 ROB Critical Load Stall End Bucket Count 1: 0
 ROB Load Stall Begin Bucket Count 2: 230379
 ROB Load Stall End Bucket Count 2: 320131
 ROB Critical Load Stall Begin Bucket Count 2: 0
 ROB Critical Load Stall End Bucket Count 2: 0
 ROB Load Stall Begin Bucket Count 3: 57784
 ROB Load Stall End Bucket Count 3: 90774
 ROB Critical Load Stall Begin Bucket Count 3: 0
 ROB Critical Load Stall End Bucket Count 3: 0
 ROB Load Stall Begin Bucket Count 4: 9573
 ROB Load Stall End Bucket Count 4: 19809
 ROB Critical Load Stall Begin Bucket Count 4: 0
 ROB Critical Load Stall End Bucket Count 4: 0
 ROB Load Stall Begin Bucket Count 5: 12608
 ROB Load Stall End Bucket Count 5: 13005
 ROB Critical Load Stall Begin Bucket Count 5: 0
 ROB Critical Load Stall End Bucket Count 5: 0
 ROB Load Stall Begin Bucket Count 6: 6317
 ROB Load Stall End Bucket Count 6: 8193
 ROB Critical Load Stall Begin Bucket Count 6: 0
 ROB Critical Load Stall End Bucket Count 6: 0
PIST Tag Read Accesses: 2610082
PIST Read Accesses: 1305041
PIST Tag Write Accesses: 2610082
PIST Write Accesses: 1305041
Criticality detector called times: 2432336
Max global_stall_cycles_count: 2546086
Threshold Modified: 0 times, factor: 0
Sturdy critical IP cache stats: 
 Unused entries: 0
CIC Tag Read Accesses: 0
CIC Read Accesses: 0
CIC Tag Write Accesses: 0
CIC Write Accesses: 0
Wobbly critical IP cache stats: 
 Unused entries: 127
CIC Tag Read Accesses: 145336911
CIC Read Accesses: 0
CIC Tag Write Accesses: 1
CIC Write Accesses: 0
ITLB TOTAL     ACCESS:   10592151  HIT:    9882101  MISS:     710050  HIT %:    93.2965  MISS %:    6.70355   MPKI: 14.201
ITLB LOAD TRANSLATION ACCESS:    8006862  HIT:    7981955  MISS:      24907  HIT %:    99.6889  MISS %:   0.311071   MPKI: 0.49814
ITLB TRANSLATION FROM L1D PREFETCHER ACCESS:    2585289  HIT:    1900146  MISS:     685143  HIT %:    73.4984  MISS %:    26.5016   MPKI: 13.7029
ITLB PREFETCH  REQUESTED:          0  ISSUED:          0  USEFUL:     648690  USELESS:      36452
ITLB USEFUL LOAD PREFETCHES:     648690 PREFETCH ISSUED TO LOWER LEVEL:          0  ACCURACY: inf
ITLB TIMELY PREFETCHES:     648690 LATE PREFETCHES: 2 DROPPED PREFETCHES: 79
ITLB PREFETCHES SAME FILL-ORIGIN LEVEL: 0 DIFFERENT FILL-ORIGIN LEVEL: 0
ITLB AVERAGE MISS LATENCY: 93.8498 cycles
ITLB RQ	ACCESS:   16259751	FORWARD:          0	MERGED:    5583449	TO_CACHE:   10676302

DTLB TOTAL     ACCESS:    9395431  HIT:    8875561  MISS:     519870  HIT %:    94.4668  MISS %:    5.53322   MPKI: 10.3974
DTLB LOAD TRANSLATION ACCESS:    9395431  HIT:    8875561  MISS:     519870  HIT %:    94.4668  MISS %:    5.53322   MPKI: 10.3974
DTLB PREFETCH  REQUESTED:          0  ISSUED:          0  USEFUL:          0  USELESS:          0
DTLB USEFUL LOAD PREFETCHES:          0 PREFETCH ISSUED TO LOWER LEVEL:          0  ACCURACY: -nan
DTLB TIMELY PREFETCHES:          0 LATE PREFETCHES: 0 DROPPED PREFETCHES: 0
DTLB PREFETCHES SAME FILL-ORIGIN LEVEL: 0 DIFFERENT FILL-ORIGIN LEVEL: 0
DTLB AVERAGE MISS LATENCY: 9.84259 cycles
DTLB RQ	ACCESS:   13427476	FORWARD:          0	MERGED:    3989797	TO_CACHE:    9437679

STLB TOTAL     ACCESS:    1229920  HIT:    1224044  MISS:       5876  HIT %:    99.5222  MISS %:   0.477755   MPKI: 0.11752
STLB LOAD TRANSLATION ACCESS:     544775  HIT:     539020  MISS:       5755  HIT %:    98.9436  MISS %:     1.0564   MPKI: 0.1151
STLB TRANSLATION FROM L1D PREFETCHER ACCESS:     685145  HIT:     685024  MISS:        121  HIT %:    99.9823  MISS %:  0.0176605   MPKI: 0.00242
STLB PREFETCH  REQUESTED:          0  ISSUED:          0  USEFUL:         64  USELESS:         46
STLB USEFUL LOAD PREFETCHES:         64 PREFETCH ISSUED TO LOWER LEVEL:          0  ACCURACY: inf
STLB TIMELY PREFETCHES:         64 LATE PREFETCHES: 0 DROPPED PREFETCHES: 79
STLB PREFETCHES SAME FILL-ORIGIN LEVEL: 0 DIFFERENT FILL-ORIGIN LEVEL: 0
STLB AVERAGE MISS LATENCY: 73.534 cycles
STLB RQ	ACCESS:    1229999	FORWARD:          0	MERGED:          0	TO_CACHE:    1229999

STLB Hit, L1D data hit: 0
STLB Hit, L2C data hit: 0
STLB Hit, LLC data hit: 0
STLB Hit, LLC data miss: 0
STLB STLB hints to L2: 0
L1D TOTAL     ACCESS:   13329268  HIT:   12889375  MISS:     439893  HIT %:    96.6998  MISS %:     3.3002   MPKI: 8.79786
L1D LOAD      ACCESS:    7079533  HIT:    6701994  MISS:     377539  HIT %:    94.6672  MISS %:    5.33282   MPKI: 7.55078
L1D RFO       ACCESS:    6249735  HIT:    6187381  MISS:      62354  HIT %:    99.0023  MISS %:   0.997706   MPKI: 1.24708
L1D PREFETCH  REQUESTED:          0  ISSUED:          0  USEFUL:          0  USELESS:          0
L1D USEFUL LOAD PREFETCHES:          0 PREFETCH ISSUED TO LOWER LEVEL:          0  ACCURACY: -nan
L1D TIMELY PREFETCHES:          0 LATE PREFETCHES: 0 DROPPED PREFETCHES: 0
L1D PREFETCHES SAME FILL-ORIGIN LEVEL: 0 DIFFERENT FILL-ORIGIN LEVEL: 0
L1D AVERAGE MISS LATENCY: 31.0731 cycles
L1D RQ	ACCESS:   10947502	FORWARD:          0	MERGED:    3701040	TO_CACHE:    7094319
L1D WQ	ACCESS:    6427456	FORWARD:     152143	MERGED:      94299	TO_CACHE:    6333157

L1D UNIQUE REGIONS ACCESSED: 0
L1D REGIONS CONFLICTS: 0
L1D Cross Page Prefetch Requests: 0
L1D Same Page Prefetch Requests: 0
L1D ROI Sum of L1D PQ occupancy: 0
L1D PREFETCHES PUSHED FROM L2C: 0
L1I TOTAL     ACCESS:   16221994  HIT:   11478805  MISS:    4743189  HIT %:    70.7608  MISS %:    29.2392   MPKI: 94.8638
L1I LOAD      ACCESS:    9510572  HIT:    9495631  MISS:      14941  HIT %:    99.8429  MISS %:   0.157099   MPKI: 0.29882
L1I PREFETCH  ACCESS:    6711422  HIT:    1983174  MISS:    4728248  HIT %:    29.5492  MISS %:    70.4508   MPKI: 94.565
L1I PREFETCH  REQUESTED:    6942331  ISSUED:    6917117  USEFUL:    4106821  USELESS:     621434
L1I USEFUL LOAD PREFETCHES:    4106821 PREFETCH ISSUED TO LOWER LEVEL:    4731874  ACCURACY: 86.7906
L1I TIMELY PREFETCHES:    4106821 LATE PREFETCHES: 3628 DROPPED PREFETCHES: 158
L1I PREFETCHES SAME FILL-ORIGIN LEVEL: 4731874 DIFFERENT FILL-ORIGIN LEVEL: 0
L1I AVERAGE MISS LATENCY: 31538.8 cycles
L1I RQ	ACCESS:   14194722	FORWARD:          0	MERGED:    4683338	TO_CACHE:    9511384
L1I PQ	ACCESS:    6917117	FORWARD:          0	MERGED:     168750	TO_CACHE:    6748367

BTB TOTAL     ACCESS:    5373999  HIT:    4845470  MISS:     528529  HIT %:    90.1651  MISS %:    9.83493   MPKI: 10.5706
BTB BRANCH_DIRECT_JUMP	ACCESS:     541911  HIT:     528428  MISS:      13483
BTB BRANCH_INDIRECT	ACCESS:      59690  HIT:      59594  MISS:         96
BTB BRANCH_CONDITIONAL	ACCESS:    2296252  HIT:    2253029  MISS:      43223
BTB BRANCH_DIRECT_CALL	ACCESS:    1003585  HIT:     965030  MISS:      38555
BTB BRANCH_INDIRECT_CALL	ACCESS:     234499  HIT:     188656  MISS:      45843
BTB BRANCH_RETURN	ACCESS:    1238062  HIT:     850733  MISS:     387329
BTB BRANCH_OTHER ACCESS:          0  HIT:          0  MISS:          0

L2C TOTAL     ACCESS:    5425996  HIT:    5275277  MISS:     150719  HIT %:    97.2223  MISS %:    2.77772   MPKI: 3.01438
L2C LOAD      ACCESS:     388777  HIT:     279129  MISS:     109648  HIT %:    71.7967  MISS %:    28.2033   MPKI: 2.19296
L2C DATA LOAD MPKI: 2.18002
L2C INSTRUCTION LOAD MPKI: 0.01294
L2C RFO       ACCESS:      62354  HIT:      37772  MISS:      24582  HIT %:    60.5767  MISS %:    39.4233   MPKI: 0.49164
L2C PREFETCH  ACCESS:    4733567  HIT:    4726630  MISS:       6937  HIT %:    99.8535  MISS %:   0.146549   MPKI: 0.13874
L2C DATA PREFETCH MPKI: 0.03376
L2C INSTRUCTION PREFETCH MPKI: 0.10498
L2C WRITEBACK ACCESS:     233087  HIT:     228439  MISS:       4648  HIT %:    98.0059  MISS %:    1.99411   MPKI: 0.09296
L2C LOAD TRANSLATION ACCESS:       7875  HIT:       3103  MISS:       4772  HIT %:    39.4032  MISS %:    60.5968   MPKI: 0.09544
L2C TRANSLATION FROM L1D PREFETCHER ACCESS:        336  HIT:        204  MISS:        132  HIT %:    60.7143  MISS %:    39.2857   MPKI: 0.00264
L2C PREFETCH  REQUESTED:       1699  ISSUED:       1699  USEFUL:       1877  USELESS:       5057
L2C USEFUL LOAD PREFETCHES:       1877 PREFETCH ISSUED TO LOWER LEVEL:       6944  ACCURACY: 27.0305
L2C TIMELY PREFETCHES:       1877 LATE PREFETCHES: 7 DROPPED PREFETCHES: 0
L2C PREFETCHES SAME FILL-ORIGIN LEVEL: 1695 DIFFERENT FILL-ORIGIN LEVEL: 0
L2C AVERAGE MISS LATENCY: 51.0021 cycles
L2C RQ	ACCESS:     459417	FORWARD:          0	MERGED:          0	TO_CACHE:     459342
L2C WQ	ACCESS:     233087	FORWARD:         75	MERGED:          0	TO_CACHE:     233087
L2C PQ	ACCESS:    4733573	FORWARD:          0	MERGED:          0	TO_CACHE:    4733573

L2C Instructions Evicting Data 5377
L2C Translations Evicting Data 4438
L2C Data Evicting Data 125945
L2C Instructions Evicting Instructions 309
L2C Translations Evicting Instructions 191
L2C Data Evicting Instructions 4976
L2C Instructions Evicting Translations 210
L2C Translations Evicting Translations 275
L2C Data Evicting Translations 4350
L2C Dense regions hint from L2: 0
PSCL5 TOTAL     ACCESS:       5955  HIT:       5955  MISS:          0  HIT %:        100  MISS %:          0   MPKI: 0
PSCL5 LOAD TRANSLATION ACCESS:       5755  HIT:       5755  MISS:          0  HIT %:        100  MISS %:          0   MPKI: 0
PSCL5 TRANSLATION FROM L1D PREFETCHER ACCESS:        200  HIT:        200  MISS:          0  HIT %:        100  MISS %:          0   MPKI: 0
PSCL5 PREFETCH  REQUESTED:          0  ISSUED:          0  USEFUL:          0  USELESS:          0
PSCL5 USEFUL LOAD PREFETCHES:          0 PREFETCH ISSUED TO LOWER LEVEL:          0  ACCURACY: -nan
PSCL5 TIMELY PREFETCHES:          0 LATE PREFETCHES: 0 DROPPED PREFETCHES: 0
PSCL5 PREFETCHES SAME FILL-ORIGIN LEVEL: 0 DIFFERENT FILL-ORIGIN LEVEL: 0

PSCL4 TOTAL     ACCESS:       5936  HIT:       5933  MISS:          3  HIT %:    99.9495  MISS %:  0.0505391   MPKI: 6e-05
PSCL4 LOAD TRANSLATION ACCESS:       5736  HIT:       5733  MISS:          3  HIT %:    99.9477  MISS %:  0.0523013   MPKI: 6e-05
PSCL4 TRANSLATION FROM L1D PREFETCHER ACCESS:        200  HIT:        200  MISS:          0  HIT %:        100  MISS %:          0   MPKI: 0
PSCL4 PREFETCH  REQUESTED:          0  ISSUED:          0  USEFUL:          0  USELESS:          0
PSCL4 USEFUL LOAD PREFETCHES:          0 PREFETCH ISSUED TO LOWER LEVEL:          0  ACCURACY: -nan
PSCL4 TIMELY PREFETCHES:          0 LATE PREFETCHES: 0 DROPPED PREFETCHES: 0
PSCL4 PREFETCHES SAME FILL-ORIGIN LEVEL: 0 DIFFERENT FILL-ORIGIN LEVEL: 0

PSCL3 TOTAL     ACCESS:       5946  HIT:       5940  MISS:          6  HIT %:    99.8991  MISS %:   0.100908   MPKI: 0.00012
PSCL3 LOAD TRANSLATION ACCESS:       5746  HIT:       5740  MISS:          6  HIT %:    99.8956  MISS %:    0.10442   MPKI: 0.00012
PSCL3 TRANSLATION FROM L1D PREFETCHER ACCESS:        200  HIT:        200  MISS:          0  HIT %:        100  MISS %:          0   MPKI: 0
PSCL3 PREFETCH  REQUESTED:          0  ISSUED:          0  USEFUL:          0  USELESS:          0
PSCL3 USEFUL LOAD PREFETCHES:          0 PREFETCH ISSUED TO LOWER LEVEL:          0  ACCURACY: -nan
PSCL3 TIMELY PREFETCHES:          0 LATE PREFETCHES: 0 DROPPED PREFETCHES: 0
PSCL3 PREFETCHES SAME FILL-ORIGIN LEVEL: 0 DIFFERENT FILL-ORIGIN LEVEL: 0

PSCL2 TOTAL     ACCESS:       5876  HIT:       3685  MISS:       2191  HIT %:    62.7127  MISS %:    37.2873   MPKI: 0.04382
PSCL2 LOAD TRANSLATION ACCESS:       5812  HIT:       3621  MISS:       2191  HIT %:    62.3021  MISS %:    37.6979   MPKI: 0.04382
PSCL2 TRANSLATION FROM L1D PREFETCHER ACCESS:         64  HIT:         64  MISS:          0  HIT %:        100  MISS %:          0   MPKI: 0
PSCL2 PREFETCH  REQUESTED:          0  ISSUED:          0  USEFUL:          0  USELESS:          0
PSCL2 USEFUL LOAD PREFETCHES:          0 PREFETCH ISSUED TO LOWER LEVEL:          0  ACCURACY: -nan
PSCL2 TIMELY PREFETCHES:          0 LATE PREFETCHES: 0 DROPPED PREFETCHES: 0
PSCL2 PREFETCHES SAME FILL-ORIGIN LEVEL: 0 DIFFERENT FILL-ORIGIN LEVEL: 0

LLC TOTAL     ACCESS:     218068  HIT:     196015  MISS:      22053  HIT %:    89.8871  MISS %:    10.1129   MPKI: 0.44106
LLC LOAD      ACCESS:     109639  HIT:      95165  MISS:      14474  HIT %:    86.7985  MISS %:    13.2015   MPKI: 0.28948
LLC RFO       ACCESS:      24582  HIT:      19292  MISS:       5290  HIT %:    78.4802  MISS %:    21.5198   MPKI: 0.1058
LLC PREFETCH  ACCESS:       6944  HIT:       5047  MISS:       1897  HIT %:    72.6815  MISS %:    27.3185   MPKI: 0.03794
LLC WRITEBACK ACCESS:      71999  HIT:      71741  MISS:        258  HIT %:    99.6417  MISS %:   0.358338   MPKI: 0.00516
LLC LOAD TRANSLATION ACCESS:       4772  HIT:       4638  MISS:        134  HIT %:     97.192  MISS %:    2.80805   MPKI: 0.00268
LLC TRANSLATION FROM L1D PREFETCHER ACCESS:        132  HIT:        132  MISS:          0  HIT %:        100  MISS %:          0   MPKI: 0
LLC PREFETCH  REQUESTED:          0  ISSUED:          0  USEFUL:         13  USELESS:        327
LLC USEFUL LOAD PREFETCHES:         13 PREFETCH ISSUED TO LOWER LEVEL:       1897  ACCURACY: 0.685293
LLC TIMELY PREFETCHES:         13 LATE PREFETCHES: 0 DROPPED PREFETCHES: 0
LLC PREFETCHES SAME FILL-ORIGIN LEVEL: 0 DIFFERENT FILL-ORIGIN LEVEL: 0
LLC AVERAGE MISS LATENCY: 149.751 cycles
LLC RQ	ACCESS:     139127	FORWARD:          0	MERGED:          0	TO_CACHE:     139125
LLC WQ	ACCESS:      71999	FORWARD:          2	MERGED:          0	TO_CACHE:      71999
LLC PQ	ACCESS:       6944	FORWARD:          0	MERGED:          0	TO_CACHE:       6944

LLC Dense regions hint to LLC: 0

RAW hits: 1601989
Loads Generated: 12549491
Loads sent to L1D: 10947502
Stores Generated: 6427447
Stores sent to L1D: 6427456
Major fault: 0 Minor fault: 5748
Allocated PAGES: 5748
I-Shadow cache 408 bytes
Touched + WorthPF tables 6144 bytes 
MMA filter 174 bytes 
FNL filter 272 bytes 
TOTAL PREFETCHER STORAGE SIZE: 25174 bytes
CPU 0 L1I next line prefetcher final stats
[Bingo] PHT Access: 72
[Bingo] PHT Hit PC+Addr: 0
[Bingo] PHT Hit PC+Offs: 57
[Bingo] PHT Miss: 15
[Bingo] Prefetch PC+Addr: 0
[Bingo] Prefetch PC+Offs: 0
[Bingo] Useful PC+Addr: 0
[Bingo] Useful PC+Offs: 0
[Bingo] Useless PC+Addr: 0
[Bingo] Useless PC+Offs: 0
[Bingo] L1 Prefetch per Region: 0
[Bingo] L2 Prefetch per Region: 30.807
[Bingo] L3 Prefetch per Region: 0
[Bingo] No Prefetch per Region: 1.19298
[Bingo] Number of Voters Mean: 11.3333
[Bingo] Number of Voters SD: 5.37484
PHT read accesses: 646
PHT write accesses: 68
AT read accesses: 1783
AT write accesses: 1783
FT read accesses: 208
FT write accesses: 72
PS read accesses: 170
PS write accesses: 57
PHT tag read accesses: 2940
PHT tag write accesses: 68
AT tag read accesses: 2442340
AT tag write accesses: 1851
FT tag read accesses: 2416056
FT tag write accesses: 212
PS tag read accesses: 30473
PS tag write accesses: 227

DRAM Statistics
 CHANNEL 0
 RQ ROW_BUFFER_HIT:       6135  ROW_BUFFER_MISS:      15659
 DBUS_CONGESTED:          3
 WQ ROW_BUFFER_HIT:        599  ROW_BUFFER_MISS:       7087  FULL:          0

 AVG_CONGESTED_CYCLE: 3
 All warmup complete: 2
Channel 0 Bank busy for read cycles: 0
Channel 0 Bank busy for write cycles: 0
Channel 0
Rank 0
0banks busy for read cycles: 54086062
0banks busy for write cycles: 5253
1banks busy for read cycles: 1684914
1banks busy for write cycles: 828899
2banks busy for read cycles: 374683
2banks busy for write cycles: 164794
3banks busy for read cycles: 8996
3banks busy for write cycles: 23039
4banks busy for read cycles: 5878
4banks busy for write cycles: 13915
5banks busy for read cycles: 4473
5banks busy for write cycles: 7500
6banks busy for read cycles: 3614
6banks busy for write cycles: 3853
7banks busy for read cycles: 4723
7banks busy for write cycles: 4263
8banks busy for read cycles: 11983
8banks busy for write cycles: 1237

CPU 0 Branch Prediction Accuracy: 99.9279% MPKI: 0.12968 Average ROB Occupancy at Mispredict: 52.8851
Branch types
NOT_BRANCH: 41006134 82.0123%
BRANCH_DIRECT_JUMP: 541911 1.08382%
BRANCH_INDIRECT: 59690 0.11938%
BRANCH_CONDITIONAL: 5915823 11.8316%
BRANCH_DIRECT_CALL: 1003585 2.00717%
BRANCH_INDIRECT_CALL: 234499 0.468998%
BRANCH_RETURN: 1238062 2.47612%
BRANCH_OTHER: 0 0%

DRAM PAGES: 1048576
Allocated PAGES: 5748
