
*** ChampSim Multicore Out-of-Order Simulator ***

Warmup Instructions: 50000000
Simulation Instructions: 50000000
Number of CPUs: 1
LLC sets: 2048
LLC ways: 16
Off-chip DRAM Size: 4096 MB Channels: 1 Width: 64-bit Data Rate: 6400 MT/s
CPU 0 runs ../IPC-traces//server_021.champsimtrace.xz
.xz
BTB has LRU replacement policy
ITLB has LRU replacement policy
DTLB has LRU replacement policy
STLB has LRU replacement policy
CPU 0 L1I next line prefetcher
L1I has LRU replacement policy
IP Table Entries: 64
L1D has LRU replacement policy
Initialize SRRIP state for L2C
Initialize DRRIP state for LLC
Heartbeat CPU 0 instructions: 10000000 cycles: 3182948 heartbeat IPC: 3.14174 cumulative IPC: 3.14174 (Simulation time: 0 hr 3 min 4 sec) 
Heartbeat CPU 0 instructions: 20000000 cycles: 6346614 heartbeat IPC: 3.16089 cumulative IPC: 3.15129 (Simulation time: 0 hr 6 min 10 sec) 
Heartbeat CPU 0 instructions: 30000000 cycles: 9546815 heartbeat IPC: 3.1248 cumulative IPC: 3.14241 (Simulation time: 0 hr 9 min 8 sec) 
Heartbeat CPU 0 instructions: 40000000 cycles: 12702315 heartbeat IPC: 3.16907 cumulative IPC: 3.14903 (Simulation time: 0 hr 12 min 9 sec) 
Heartbeat CPU 0 instructions: 50000000 cycles: 15886715 heartbeat IPC: 3.14031 cumulative IPC: 3.14728 (Simulation time: 0 hr 14 min 51 sec) 

Warmup complete CPU 0 instructions: 50000004 cycles: 15886716 (Simulation time: 0 hr 14 min 51 sec) 

Heartbeat CPU 0 instructions: 60000001 cycles: 44054987 heartbeat IPC: 0.355009 cumulative IPC: 0.355009 (Simulation time: 0 hr 20 min 5 sec) 
Heartbeat CPU 0 instructions: 70000000 cycles: 72116985 heartbeat IPC: 0.356354 cumulative IPC: 0.35568 (Simulation time: 0 hr 25 min 12 sec) 
Heartbeat CPU 0 instructions: 80000003 cycles: 99830545 heartbeat IPC: 0.360834 cumulative IPC: 0.357382 (Simulation time: 0 hr 31 min 6 sec) 
Heartbeat CPU 0 instructions: 90000000 cycles: 127852770 heartbeat IPC: 0.35686 cumulative IPC: 0.357251 (Simulation time: 0 hr 38 min 47 sec) 
Heartbeat CPU 0 instructions: 100000002 cycles: 155687876 heartbeat IPC: 0.359259 cumulative IPC: 0.357651 (Simulation time: 0 hr 46 min 19 sec) 
Finished CPU 0 instructions: 50000002 cycles: 139801161 cumulative IPC: 0.357651 (Simulation time: 0 hr 46 min 19 sec) 

ChampSim completed all CPUs

Region of Interest Statistics

CPU 0 cumulative IPC: 0.357651 instructions: 50000002 cycles: 139801161

CPU 0 Average Load ROB stall cycles: 3.94286e+07
CPU 0 Fraction of times ROB stalled by Loads: 45.8553
CPU 0 Percentage of Load stall cycles in Total stall cycles: 2.30302e+08
Issued all: 85133081
Issued LT all: 79869108
rob_not_full_when_issued_lt_all: 16784552
Issued LT one: 73995033
rob_not_full_when_issued_lt_one: 12756927
HPCA_2009 critical_dynamic_instances_0: 587183
HPCA_2009 unique_critical_ips_0: 4459
multiple_destinations_0: 0
load_to_same_dest_0: 0
low_issue_rate_0: 19119950
total_issue_rate_checked_count_0: 19943912
 Total stall cycles: 122437350
 Total load stall cycles: 281975078478770
Unique Load IPs: 6062
CPU 0 NUM of IPS identified critical: 0
CPU 0 Num of Load IPs stalling ROB: 0
Threshold modification factor: 0
Trouble in retire width: -nan
MaC = Marked as critical.
lt_50_percent_before_Mac: 0
gt_90_percent_before_Mac: 0
gt_75_percent_before_Mac: 0
gt_50_percent_before_Mac: 0
stall_proportion_bin_same_before_after: 0
stall_proportion_bin_lower_before_after: 0
stall_proportion_bin_upper_before_after: 0
average_stall_proportion_before: -nan
average_stall_proportion_after: -nan
Critical IP stalls, total frequency: 0
Non-critical IP stalls, total frequency: 0
Total Freq all stalling IPs: 0
Critical_IP_Detector_Accuracy_70: 0
Critical_IP_Detector_Accuracy_80: 0
Critical_IP_Detector_Accuracy_90: 0
Critical_IP_Detector_Coverage_70: 0
Critical_IP_Detector_Coverage_80: 0
Critical_IP_Detector_Coverage_90: 0
stat_90_percent_critical_ip_stalls_freq: 293898
stat_90_percent_non_critical_ip_stalls_freq: 18446744073709257718
AVERAGE_ROB_Occupancy_90_Percent_Critical_IP_Stalls: 315.48
AVERAGE_ROB_Occupancy_90_Percent_Non_Critical_IP_Stalls: 2.97277e-11
Critical_IP_ROB_Stalls_Bucket_0: 0
Non-critical_IP_ROB_Stalls_Bucket_0: 507896
Critical_IP_ROB_Stalls_Bucket_1: 0
Non-critical_IP_ROB_Stalls_Bucket_1: 614981
Critical_IP_ROB_Stalls_Bucket_2: 0
Non-critical_IP_ROB_Stalls_Bucket_2: 427394
Critical_IP_ROB_Stalls_Bucket_3: 0
Non-critical_IP_ROB_Stalls_Bucket_3: 249472
Critical_IP_ROB_Stalls_Bucket_4: 0
Non-critical_IP_ROB_Stalls_Bucket_4: 168192
Critical_IP_ROB_Stalls_Bucket_5: 0
Non-critical_IP_ROB_Stalls_Bucket_5: 146321
Critical_IP_ROB_Stalls_Bucket_6: 0
Non-critical_IP_ROB_Stalls_Bucket_6: 1165102
0 => IPs accounting for >50 percent of stalls, 1 => 55, 2 => 60, 3 => 65 and so on till 90.
percent50: inf num IPs:  1
percent55: inf num IPs: 1
percent60: inf num IPs: 1
percent65: inf num IPs: 1
percent70: inf num IPs: 1
percent75: inf num IPs: 1
percent80: inf num IPs: 1
percent85: inf num IPs: 1
percent90: inf num IPs: 1
Critical_ROB_Stalls_Percent_0_Bucket_0: 639
Non-critical_ROB_Stalls_Percent_0_Bucket_0: 507257
Critical_ROB_Stalls_Percent_0_Bucket_1: 3139
Non-critical_ROB_Stalls_Percent_0_Bucket_1: 611842
Critical_ROB_Stalls_Percent_0_Bucket_2: 12936
Non-critical_ROB_Stalls_Percent_0_Bucket_2: 414458
Critical_ROB_Stalls_Percent_0_Bucket_3: 18103
Non-critical_ROB_Stalls_Percent_0_Bucket_3: 231369
Critical_ROB_Stalls_Percent_0_Bucket_4: 16907
Non-critical_ROB_Stalls_Percent_0_Bucket_4: 151285
Critical_ROB_Stalls_Percent_0_Bucket_5: 14401
Non-critical_ROB_Stalls_Percent_0_Bucket_5: 131920
Critical_ROB_Stalls_Percent_0_Bucket_6: 227773
Non-critical_ROB_Stalls_Percent_0_Bucket_6: 937329
Critical_ROB_Stalls_Percent_1_Bucket_0: 639
Non-critical_ROB_Stalls_Percent_1_Bucket_0: 507257
Critical_ROB_Stalls_Percent_1_Bucket_1: 3139
Non-critical_ROB_Stalls_Percent_1_Bucket_1: 611842
Critical_ROB_Stalls_Percent_1_Bucket_2: 12936
Non-critical_ROB_Stalls_Percent_1_Bucket_2: 414458
Critical_ROB_Stalls_Percent_1_Bucket_3: 18103
Non-critical_ROB_Stalls_Percent_1_Bucket_3: 231369
Critical_ROB_Stalls_Percent_1_Bucket_4: 16907
Non-critical_ROB_Stalls_Percent_1_Bucket_4: 151285
Critical_ROB_Stalls_Percent_1_Bucket_5: 14401
Non-critical_ROB_Stalls_Percent_1_Bucket_5: 131920
Critical_ROB_Stalls_Percent_1_Bucket_6: 227773
Non-critical_ROB_Stalls_Percent_1_Bucket_6: 937329
Critical_ROB_Stalls_Percent_2_Bucket_0: 639
Non-critical_ROB_Stalls_Percent_2_Bucket_0: 507257
Critical_ROB_Stalls_Percent_2_Bucket_1: 3139
Non-critical_ROB_Stalls_Percent_2_Bucket_1: 611842
Critical_ROB_Stalls_Percent_2_Bucket_2: 12936
Non-critical_ROB_Stalls_Percent_2_Bucket_2: 414458
Critical_ROB_Stalls_Percent_2_Bucket_3: 18103
Non-critical_ROB_Stalls_Percent_2_Bucket_3: 231369
Critical_ROB_Stalls_Percent_2_Bucket_4: 16907
Non-critical_ROB_Stalls_Percent_2_Bucket_4: 151285
Critical_ROB_Stalls_Percent_2_Bucket_5: 14401
Non-critical_ROB_Stalls_Percent_2_Bucket_5: 131920
Critical_ROB_Stalls_Percent_2_Bucket_6: 227773
Non-critical_ROB_Stalls_Percent_2_Bucket_6: 937329
Critical_ROB_Stalls_Percent_3_Bucket_0: 639
Non-critical_ROB_Stalls_Percent_3_Bucket_0: 507257
Critical_ROB_Stalls_Percent_3_Bucket_1: 3139
Non-critical_ROB_Stalls_Percent_3_Bucket_1: 611842
Critical_ROB_Stalls_Percent_3_Bucket_2: 12936
Non-critical_ROB_Stalls_Percent_3_Bucket_2: 414458
Critical_ROB_Stalls_Percent_3_Bucket_3: 18103
Non-critical_ROB_Stalls_Percent_3_Bucket_3: 231369
Critical_ROB_Stalls_Percent_3_Bucket_4: 16907
Non-critical_ROB_Stalls_Percent_3_Bucket_4: 151285
Critical_ROB_Stalls_Percent_3_Bucket_5: 14401
Non-critical_ROB_Stalls_Percent_3_Bucket_5: 131920
Critical_ROB_Stalls_Percent_3_Bucket_6: 227773
Non-critical_ROB_Stalls_Percent_3_Bucket_6: 937329
Critical_ROB_Stalls_Percent_4_Bucket_0: 639
Non-critical_ROB_Stalls_Percent_4_Bucket_0: 507257
Critical_ROB_Stalls_Percent_4_Bucket_1: 3139
Non-critical_ROB_Stalls_Percent_4_Bucket_1: 611842
Critical_ROB_Stalls_Percent_4_Bucket_2: 12936
Non-critical_ROB_Stalls_Percent_4_Bucket_2: 414458
Critical_ROB_Stalls_Percent_4_Bucket_3: 18103
Non-critical_ROB_Stalls_Percent_4_Bucket_3: 231369
Critical_ROB_Stalls_Percent_4_Bucket_4: 16907
Non-critical_ROB_Stalls_Percent_4_Bucket_4: 151285
Critical_ROB_Stalls_Percent_4_Bucket_5: 14401
Non-critical_ROB_Stalls_Percent_4_Bucket_5: 131920
Critical_ROB_Stalls_Percent_4_Bucket_6: 227773
Non-critical_ROB_Stalls_Percent_4_Bucket_6: 937329
Critical_ROB_Stalls_Percent_5_Bucket_0: 639
Non-critical_ROB_Stalls_Percent_5_Bucket_0: 507257
Critical_ROB_Stalls_Percent_5_Bucket_1: 3139
Non-critical_ROB_Stalls_Percent_5_Bucket_1: 611842
Critical_ROB_Stalls_Percent_5_Bucket_2: 12936
Non-critical_ROB_Stalls_Percent_5_Bucket_2: 414458
Critical_ROB_Stalls_Percent_5_Bucket_3: 18103
Non-critical_ROB_Stalls_Percent_5_Bucket_3: 231369
Critical_ROB_Stalls_Percent_5_Bucket_4: 16907
Non-critical_ROB_Stalls_Percent_5_Bucket_4: 151285
Critical_ROB_Stalls_Percent_5_Bucket_5: 14401
Non-critical_ROB_Stalls_Percent_5_Bucket_5: 131920
Critical_ROB_Stalls_Percent_5_Bucket_6: 227773
Non-critical_ROB_Stalls_Percent_5_Bucket_6: 937329
Critical_ROB_Stalls_Percent_6_Bucket_0: 639
Non-critical_ROB_Stalls_Percent_6_Bucket_0: 507257
Critical_ROB_Stalls_Percent_6_Bucket_1: 3139
Non-critical_ROB_Stalls_Percent_6_Bucket_1: 611842
Critical_ROB_Stalls_Percent_6_Bucket_2: 12936
Non-critical_ROB_Stalls_Percent_6_Bucket_2: 414458
Critical_ROB_Stalls_Percent_6_Bucket_3: 18103
Non-critical_ROB_Stalls_Percent_6_Bucket_3: 231369
Critical_ROB_Stalls_Percent_6_Bucket_4: 16907
Non-critical_ROB_Stalls_Percent_6_Bucket_4: 151285
Critical_ROB_Stalls_Percent_6_Bucket_5: 14401
Non-critical_ROB_Stalls_Percent_6_Bucket_5: 131920
Critical_ROB_Stalls_Percent_6_Bucket_6: 227773
Non-critical_ROB_Stalls_Percent_6_Bucket_6: 937329
Critical_ROB_Stalls_Percent_7_Bucket_0: 639
Non-critical_ROB_Stalls_Percent_7_Bucket_0: 507257
Critical_ROB_Stalls_Percent_7_Bucket_1: 3139
Non-critical_ROB_Stalls_Percent_7_Bucket_1: 611842
Critical_ROB_Stalls_Percent_7_Bucket_2: 12936
Non-critical_ROB_Stalls_Percent_7_Bucket_2: 414458
Critical_ROB_Stalls_Percent_7_Bucket_3: 18103
Non-critical_ROB_Stalls_Percent_7_Bucket_3: 231369
Critical_ROB_Stalls_Percent_7_Bucket_4: 16907
Non-critical_ROB_Stalls_Percent_7_Bucket_4: 151285
Critical_ROB_Stalls_Percent_7_Bucket_5: 14401
Non-critical_ROB_Stalls_Percent_7_Bucket_5: 131920
Critical_ROB_Stalls_Percent_7_Bucket_6: 227773
Non-critical_ROB_Stalls_Percent_7_Bucket_6: 937329
Critical_ROB_Stalls_Percent_8_Bucket_0: 639
Non-critical_ROB_Stalls_Percent_8_Bucket_0: 507257
Critical_ROB_Stalls_Percent_8_Bucket_1: 3139
Non-critical_ROB_Stalls_Percent_8_Bucket_1: 611842
Critical_ROB_Stalls_Percent_8_Bucket_2: 12936
Non-critical_ROB_Stalls_Percent_8_Bucket_2: 414458
Critical_ROB_Stalls_Percent_8_Bucket_3: 18103
Non-critical_ROB_Stalls_Percent_8_Bucket_3: 231369
Critical_ROB_Stalls_Percent_8_Bucket_4: 16907
Non-critical_ROB_Stalls_Percent_8_Bucket_4: 151285
Critical_ROB_Stalls_Percent_8_Bucket_5: 14401
Non-critical_ROB_Stalls_Percent_8_Bucket_5: 131920
Critical_ROB_Stalls_Percent_8_Bucket_6: 227773
Non-critical_ROB_Stalls_Percent_8_Bucket_6: 937329
Average ROB occupancy Load Stall Begin: 187.252
Average ROB occupancy Load Stall End: 195.495
Min ROB occupancy Load Stall Begin: 1
Max ROB occupancy Load Stall Begin: 352
Min ROB occupancy Load Stall End: 1
Max ROB occupancy Load Stall End: 352
Average ROB occupancy Critical Load Stall Begin: -nan
Average ROB occupancy Critical Load Stall End: -nan
Min ROB occupancy Critical Load Stall Begin: 400
Max ROB occupancy Critical Load Stall Begin: 0
Min ROB occupancy Critical Load Stall End: 400
Max ROB occupancy Critical Load Stall End: 0
 ROB Load Stall Begin Bucket Count 0: 714155
 ROB Load Stall End Bucket Count 0: 507896
 ROB Critical Load Stall Begin Bucket Count 0: 0
 ROB Critical Load Stall End Bucket Count 0: 0
 ROB Load Stall Begin Bucket Count 1: 539167
 ROB Load Stall End Bucket Count 1: 614981
 ROB Critical Load Stall Begin Bucket Count 1: 0
 ROB Critical Load Stall End Bucket Count 1: 0
 ROB Load Stall Begin Bucket Count 2: 374838
 ROB Load Stall End Bucket Count 2: 427394
 ROB Critical Load Stall Begin Bucket Count 2: 0
 ROB Critical Load Stall End Bucket Count 2: 0
 ROB Load Stall Begin Bucket Count 3: 212046
 ROB Load Stall End Bucket Count 3: 249472
 ROB Critical Load Stall Begin Bucket Count 3: 0
 ROB Critical Load Stall End Bucket Count 3: 0
 ROB Load Stall Begin Bucket Count 4: 154488
 ROB Load Stall End Bucket Count 4: 168192
 ROB Critical Load Stall Begin Bucket Count 4: 0
 ROB Critical Load Stall End Bucket Count 4: 0
 ROB Load Stall Begin Bucket Count 5: 147686
 ROB Load Stall End Bucket Count 5: 146321
 ROB Critical Load Stall Begin Bucket Count 5: 0
 ROB Critical Load Stall End Bucket Count 5: 0
 ROB Load Stall Begin Bucket Count 6: 1136978
 ROB Load Stall End Bucket Count 6: 1165102
 ROB Critical Load Stall Begin Bucket Count 6: 0
 ROB Critical Load Stall End Bucket Count 6: 0
PIST Tag Read Accesses: 0
PIST Read Accesses: 0
PIST Tag Write Accesses: 0
PIST Write Accesses: 0
Criticality detector called times: 0
Max global_stall_cycles_count: 0
Threshold Modified: 0 times, factor: 0
ITLB TOTAL     ACCESS:   10456889  HIT:    9958529  MISS:     498360  HIT %:    95.2341  MISS %:    4.76585   MPKI: 9.9672
ITLB LOAD TRANSLATION ACCESS:    8520375  HIT:    8507928  MISS:      12447  HIT %:    99.8539  MISS %:   0.146085   MPKI: 0.24894
ITLB TRANSLATION FROM L1D PREFETCHER ACCESS:    1936514  HIT:    1450601  MISS:     485913  HIT %:    74.9078  MISS %:    25.0922   MPKI: 9.71826
ITLB PREFETCH  REQUESTED:          0  ISSUED:          0  USEFUL:     430195  USELESS:      55720
ITLB USEFUL LOAD PREFETCHES:     430195 PREFETCH ISSUED TO LOWER LEVEL:          0  ACCURACY: inf
ITLB TIMELY PREFETCHES:     430195 LATE PREFETCHES: 155 DROPPED PREFETCHES: 0
ITLB PREFETCHES SAME FILL-ORIGIN LEVEL: 0 DIFFERENT FILL-ORIGIN LEVEL: 0
ITLB AVERAGE MISS LATENCY: 26054.4 cycles
ITLB RQ	ACCESS:   15002205	FORWARD:          0	MERGED:    4497150	TO_CACHE:   10505055

DTLB TOTAL     ACCESS:   10890381  HIT:   10486473  MISS:     403908  HIT %:    96.2911  MISS %:    3.70885   MPKI: 8.07816
DTLB LOAD TRANSLATION ACCESS:   10890381  HIT:   10486473  MISS:     403908  HIT %:    96.2911  MISS %:    3.70885   MPKI: 8.07816
DTLB PREFETCH  REQUESTED:          0  ISSUED:          0  USEFUL:          0  USELESS:          0
DTLB USEFUL LOAD PREFETCHES:          0 PREFETCH ISSUED TO LOWER LEVEL:          0  ACCURACY: -nan
DTLB TIMELY PREFETCHES:          0 LATE PREFETCHES: 0 DROPPED PREFETCHES: 0
DTLB PREFETCHES SAME FILL-ORIGIN LEVEL: 0 DIFFERENT FILL-ORIGIN LEVEL: 0
DTLB AVERAGE MISS LATENCY: 16.4927 cycles
DTLB RQ	ACCESS:   16204781	FORWARD:          0	MERGED:    5232708	TO_CACHE:   10972073

STLB TOTAL     ACCESS:     906181  HIT:     885831  MISS:      20350  HIT %:    97.7543  MISS %:    2.24569   MPKI: 0.407
STLB LOAD TRANSLATION ACCESS:     416200  HIT:     396238  MISS:      19962  HIT %:    95.2037  MISS %:    4.79625   MPKI: 0.39924
STLB TRANSLATION FROM L1D PREFETCHER ACCESS:     489981  HIT:     489593  MISS:        388  HIT %:    99.9208  MISS %:  0.0791867   MPKI: 0.00776
STLB PREFETCH  REQUESTED:          0  ISSUED:          0  USEFUL:        182  USELESS:        193
STLB USEFUL LOAD PREFETCHES:        182 PREFETCH ISSUED TO LOWER LEVEL:          0  ACCURACY: inf
STLB TIMELY PREFETCHES:        182 LATE PREFETCHES: 0 DROPPED PREFETCHES: 0
STLB PREFETCHES SAME FILL-ORIGIN LEVEL: 0 DIFFERENT FILL-ORIGIN LEVEL: 0
STLB AVERAGE MISS LATENCY: 154.331 cycles
STLB RQ	ACCESS:     916927	FORWARD:          0	MERGED:      10746	TO_CACHE:     906181

STLB Hit, L1D data hit: 0
STLB Hit, L2C data hit: 0
STLB Hit, LLC data hit: 0
STLB Hit, LLC data miss: 0
STLB STLB hints to L2: 0
L1D TOTAL     ACCESS:   14138229  HIT:   12319251  MISS:    1818978  HIT %:    87.1343  MISS %:    12.8657   MPKI: 36.3796
L1D LOAD      ACCESS:    7395685  HIT:    6575458  MISS:     820227  HIT %:    88.9094  MISS %:    11.0906   MPKI: 16.4045
L1D RFO       ACCESS:    6728483  HIT:    5737010  MISS:     991473  HIT %:    85.2645  MISS %:    14.7355   MPKI: 19.8295
L1D PREFETCH  ACCESS:      14061  HIT:       6783  MISS:       7278  HIT %:    48.2398  MISS %:    51.7602   MPKI: 0.14556
L1D PREFETCH  REQUESTED:      29407  ISSUED:      29324  USEFUL:       2816  USELESS:       4466
L1D USEFUL LOAD PREFETCHES:       2816 PREFETCH ISSUED TO LOWER LEVEL:       7542  ACCURACY: 37.3376
L1D TIMELY PREFETCHES:       2816 LATE PREFETCHES: 241 DROPPED PREFETCHES: 0
L1D PREFETCHES SAME FILL-ORIGIN LEVEL: 7542 DIFFERENT FILL-ORIGIN LEVEL: 0
L1D AVERAGE MISS LATENCY: 10446.1 cycles
L1D RQ	ACCESS:   11079619	FORWARD:          0	MERGED:    3521664	TO_CACHE:    7434908
L1D WQ	ACCESS:    8864293	FORWARD:     123053	MERGED:      94420	TO_CACHE:    8769873
L1D PQ	ACCESS:      14665	FORWARD:          0	MERGED:          0	TO_CACHE:      14659

L1D UNIQUE REGIONS ACCESSED: 0
L1D REGIONS CONFLICTS: 0
L1D Cross Page Prefetch Requests: 0
L1D Same Page Prefetch Requests: 447989
L1D ROI Sum of L1D PQ occupancy: 227511
L1D PREFETCHES PUSHED FROM L2C: 0
L1I TOTAL     ACCESS:   14926274  HIT:   11706446  MISS:    3219828  HIT %:    78.4285  MISS %:    21.5715   MPKI: 64.3966
L1I LOAD      ACCESS:    9941269  HIT:    9922812  MISS:      18457  HIT %:    99.8143  MISS %:    0.18566   MPKI: 0.36914
L1I PREFETCH  ACCESS:    4985005  HIT:    1783634  MISS:    3201371  HIT %:      35.78  MISS %:      64.22   MPKI: 64.0274
L1I PREFETCH  REQUESTED:    5241372  ISSUED:    5238842  USEFUL:    2661084  USELESS:     540301
L1I USEFUL LOAD PREFETCHES:    2661084 PREFETCH ISSUED TO LOWER LEVEL:    3207846  ACCURACY: 82.9555
L1I TIMELY PREFETCHES:    2661084 LATE PREFETCHES: 6471 DROPPED PREFETCHES: 0
L1I PREFETCHES SAME FILL-ORIGIN LEVEL: 3207846 DIFFERENT FILL-ORIGIN LEVEL: 0
L1I AVERAGE MISS LATENCY: 172152 cycles
L1I RQ	ACCESS:   14212082	FORWARD:          0	MERGED:    4267362	TO_CACHE:    9944720
L1I PQ	ACCESS:    5238842	FORWARD:          0	MERGED:     181357	TO_CACHE:    5057485

BTB TOTAL     ACCESS:    5300075  HIT:    5041527  MISS:     258548  HIT %:    95.1218  MISS %:     4.8782   MPKI: 5.17096
BTB BRANCH_DIRECT_JUMP	ACCESS:     445212  HIT:     443383  MISS:       1829
BTB BRANCH_INDIRECT	ACCESS:      50481  HIT:      50386  MISS:         95
BTB BRANCH_CONDITIONAL	ACCESS:    2966952  HIT:    2961198  MISS:       5754
BTB BRANCH_DIRECT_CALL	ACCESS:     758223  HIT:     754416  MISS:       3807
BTB BRANCH_INDIRECT_CALL	ACCESS:     160492  HIT:     130806  MISS:      29686
BTB BRANCH_RETURN	ACCESS:     918715  HIT:     701338  MISS:     217377
BTB BRANCH_OTHER ACCESS:          0  HIT:          0  MISS:          0

L2C TOTAL     ACCESS:    6228073  HIT:    4439630  MISS:    1788443  HIT %:    71.2842  MISS %:    28.7158   MPKI: 35.7689
L2C LOAD      ACCESS:     831963  HIT:     204106  MISS:     627857  HIT %:    24.5331  MISS %:    75.4669   MPKI: 12.5571
L2C DATA LOAD MPKI: 12.4771
L2C INSTRUCTION LOAD MPKI: 0.08004
L2C RFO       ACCESS:     991447  HIT:      41559  MISS:     949888  HIT %:    4.19175  MISS %:    95.8082   MPKI: 18.9978
L2C PREFETCH  ACCESS:    3215386  HIT:    3056085  MISS:     159301  HIT %:    95.0457  MISS %:    4.95434   MPKI: 3.18602
L2C DATA PREFETCH MPKI: 0.14036
L2C INSTRUCTION PREFETCH MPKI: 3.04566
L2C WRITEBACK ACCESS:    1167393  HIT:    1125253  MISS:      42140  HIT %:    96.3902  MISS %:    3.60975   MPKI: 0.8428
L2C LOAD TRANSLATION ACCESS:      21330  HIT:      12509  MISS:       8821  HIT %:    58.6451  MISS %:    41.3549   MPKI: 0.17642
L2C TRANSLATION FROM L1D PREFETCHER ACCESS:        554  HIT:        118  MISS:        436  HIT %:    21.2996  MISS %:    78.7004   MPKI: 0.00872
L2C PREFETCH  REQUESTED:          0  ISSUED:          0  USEFUL:       1857  USELESS:     158355
L2C USEFUL LOAD PREFETCHES:       1857 PREFETCH ISSUED TO LOWER LEVEL:     159301  ACCURACY: 1.16572
L2C TIMELY PREFETCHES:       1857 LATE PREFETCHES: 0 DROPPED PREFETCHES: 0
L2C PREFETCHES SAME FILL-ORIGIN LEVEL: 0 DIFFERENT FILL-ORIGIN LEVEL: 0
L2C AVERAGE MISS LATENCY: 156.129 cycles
L2C RQ	ACCESS:    1845306	FORWARD:          0	MERGED:          0	TO_CACHE:    1845294
L2C WQ	ACCESS:    1167394	FORWARD:         12	MERGED:          0	TO_CACHE:    1167394
L2C PQ	ACCESS:    3215388	FORWARD:          0	MERGED:          0	TO_CACHE:    3215388

L2C Instructions Evicting Data 143800
L2C Translations Evicting Data 8320
L2C Data Evicting Data 1432413
L2C Instructions Evicting Instructions 11669
L2C Translations Evicting Instructions 900
L2C Data Evicting Instructions 140112
L2C Instructions Evicting Translations 816
L2C Translations Evicting Translations 37
L2C Data Evicting Translations 8236
L2C Dense regions hint from L2: 0
PSCL5 TOTAL     ACCESS:      20350  HIT:      20350  MISS:          0  HIT %:        100  MISS %:          0   MPKI: 0
PSCL5 LOAD TRANSLATION ACCESS:      19962  HIT:      19962  MISS:          0  HIT %:        100  MISS %:          0   MPKI: 0
PSCL5 TRANSLATION FROM L1D PREFETCHER ACCESS:        388  HIT:        388  MISS:          0  HIT %:        100  MISS %:          0   MPKI: 0
PSCL5 PREFETCH  REQUESTED:          0  ISSUED:          0  USEFUL:          0  USELESS:          0
PSCL5 USEFUL LOAD PREFETCHES:          0 PREFETCH ISSUED TO LOWER LEVEL:          0  ACCURACY: -nan
PSCL5 TIMELY PREFETCHES:          0 LATE PREFETCHES: 0 DROPPED PREFETCHES: 0
PSCL5 PREFETCHES SAME FILL-ORIGIN LEVEL: 0 DIFFERENT FILL-ORIGIN LEVEL: 0

PSCL4 TOTAL     ACCESS:      19592  HIT:      19549  MISS:         43  HIT %:    99.7805  MISS %:   0.219477   MPKI: 0.00086
PSCL4 LOAD TRANSLATION ACCESS:      19217  HIT:      19174  MISS:         43  HIT %:    99.7762  MISS %:    0.22376   MPKI: 0.00086
PSCL4 TRANSLATION FROM L1D PREFETCHER ACCESS:        375  HIT:        375  MISS:          0  HIT %:        100  MISS %:          0   MPKI: 0
PSCL4 PREFETCH  REQUESTED:          0  ISSUED:          0  USEFUL:          0  USELESS:          0
PSCL4 USEFUL LOAD PREFETCHES:          0 PREFETCH ISSUED TO LOWER LEVEL:          0  ACCURACY: -nan
PSCL4 TIMELY PREFETCHES:          0 LATE PREFETCHES: 0 DROPPED PREFETCHES: 0
PSCL4 PREFETCHES SAME FILL-ORIGIN LEVEL: 0 DIFFERENT FILL-ORIGIN LEVEL: 0

PSCL3 TOTAL     ACCESS:      19952  HIT:      19909  MISS:         43  HIT %:    99.7845  MISS %:   0.215517   MPKI: 0.00086
PSCL3 LOAD TRANSLATION ACCESS:      19577  HIT:      19534  MISS:         43  HIT %:    99.7804  MISS %:   0.219646   MPKI: 0.00086
PSCL3 TRANSLATION FROM L1D PREFETCHER ACCESS:        375  HIT:        375  MISS:          0  HIT %:        100  MISS %:          0   MPKI: 0
PSCL3 PREFETCH  REQUESTED:          0  ISSUED:          0  USEFUL:          0  USELESS:          0
PSCL3 USEFUL LOAD PREFETCHES:          0 PREFETCH ISSUED TO LOWER LEVEL:          0  ACCURACY: -nan
PSCL3 TIMELY PREFETCHES:          0 LATE PREFETCHES: 0 DROPPED PREFETCHES: 0
PSCL3 PREFETCHES SAME FILL-ORIGIN LEVEL: 0 DIFFERENT FILL-ORIGIN LEVEL: 0

PSCL2 TOTAL     ACCESS:      20350  HIT:      18878  MISS:       1472  HIT %:    92.7666  MISS %:    7.23342   MPKI: 0.02944
PSCL2 LOAD TRANSLATION ACCESS:      20104  HIT:      18632  MISS:       1472  HIT %:    92.6781  MISS %:    7.32193   MPKI: 0.02944
PSCL2 TRANSLATION FROM L1D PREFETCHER ACCESS:        246  HIT:        246  MISS:          0  HIT %:        100  MISS %:          0   MPKI: 0
PSCL2 PREFETCH  REQUESTED:          0  ISSUED:          0  USEFUL:          0  USELESS:          0
PSCL2 USEFUL LOAD PREFETCHES:          0 PREFETCH ISSUED TO LOWER LEVEL:          0  ACCURACY: -nan
PSCL2 TIMELY PREFETCHES:          0 LATE PREFETCHES: 0 DROPPED PREFETCHES: 0
PSCL2 PREFETCHES SAME FILL-ORIGIN LEVEL: 0 DIFFERENT FILL-ORIGIN LEVEL: 0

LLC TOTAL     ACCESS:    2831372  HIT:    1149773  MISS:    1681599  HIT %:    40.6083  MISS %:    59.3917   MPKI: 33.632
LLC LOAD      ACCESS:     627855  HIT:     297903  MISS:     329952  HIT %:    47.4477  MISS %:    52.5523   MPKI: 6.59904
LLC RFO       ACCESS:     949888  HIT:     258388  MISS:     691500  HIT %:    27.2019  MISS %:    72.7981   MPKI: 13.83
LLC PREFETCH  ACCESS:     159301  HIT:     143202  MISS:      16099  HIT %:     89.894  MISS %:     10.106   MPKI: 0.32198
LLC WRITEBACK ACCESS:    1085071  HIT:     447165  MISS:     637906  HIT %:    41.2107  MISS %:    58.7893   MPKI: 12.7581
LLC LOAD TRANSLATION ACCESS:       8821  HIT:       2945  MISS:       5876  HIT %:    33.3862  MISS %:    66.6138   MPKI: 0.11752
LLC TRANSLATION FROM L1D PREFETCHER ACCESS:        436  HIT:        170  MISS:        266  HIT %:    38.9908  MISS %:    61.0092   MPKI: 0.00532
LLC PREFETCH  REQUESTED:          0  ISSUED:          0  USEFUL:        553  USELESS:      20257
LLC USEFUL LOAD PREFETCHES:        553 PREFETCH ISSUED TO LOWER LEVEL:      16099  ACCURACY: 3.435
LLC TIMELY PREFETCHES:        553 LATE PREFETCHES: 0 DROPPED PREFETCHES: 0
LLC PREFETCHES SAME FILL-ORIGIN LEVEL: 0 DIFFERENT FILL-ORIGIN LEVEL: 0
LLC AVERAGE MISS LATENCY: 133.345 cycles
LLC RQ	ACCESS:    1587002	FORWARD:          0	MERGED:          0	TO_CACHE:    1587000
LLC WQ	ACCESS:    1085071	FORWARD:          2	MERGED:          0	TO_CACHE:    1085071
LLC PQ	ACCESS:     159301	FORWARD:          0	MERGED:          0	TO_CACHE:     159301

LLC Dense regions hint to LLC: 0

RAW hits: 1385993
Loads Generated: 12465612
Loads sent to L1D: 11079619
Stores Generated: 8864282
Stores sent to L1D: 8864293
Major fault: 0 Minor fault: 22424
Allocated PAGES: 22424
I-Shadow cache 408 bytes
Touched + WorthPF tables 6144 bytes 
MMA filter 174 bytes 
FNL filter 272 bytes 
TOTAL PREFETCHER STORAGE SIZE: 25174 bytes
CPU 0 L1I next line prefetcher final stats

stream: 
stream:times selected: 388101
stream:pref_filled: 249918
stream:pref_useful: 228546
stream:pref_late: 1738
stream:misses: 254
stream:misses_by_poll: 0

CS: 
CS:times selected: 129079
CS:pref_filled: 1485
CS:pref_useful: 1379
CS:pref_late: 21
CS:misses: 438
CS:misses_by_poll: 0

CPLX: 
CPLX:times selected: 258515
CPLX:pref_filled: 37024
CPLX:pref_useful: 31833
CPLX:pref_late: 93
CPLX:misses: 2246
CPLX:misses_by_poll: 0

NL_L1: 
NL:times selected: 159
NL:pref_filled: 60
NL:pref_useful: 59
NL:pref_late: 14
NL:misses: 3
NL:misses_by_poll: 0

total selections: 775854
total_filled: 7278
total_useful: 2816
total_late: 1891
total_polluted: 0
total_misses_after_warmup: 7468
conflicts: 41628
Degree Incremented Times: 8656
Degree Decremented Times: 0

L1 IP Table Write Accesses: 53666
L1 IP Table Read Accesses: 12038
L1 RST Write Accesses: 8453
L1 RST Read Accesses: 16906
L1 CSPT Write Accesses: 8453
L1 CSPT Read Accesses: 17835
L1 RR Filter Tag Write Accesses: 14748
L1 RR Filter Tag Read Accesses: 2035334
L1 IP Table Tag Write Accesses: 97277
L1 IP Table Tag Read Accesses: 97277
L1 RST Tag Write Accesses: 0
L1 RST Tag Read Accesses: 73926
L1 RR Filter Write Accesses: 0
L1 RR Filter Read Accesses: 70287
test: 29515

DRAM Statistics
 CHANNEL 0
 RQ ROW_BUFFER_HIT:     512534  ROW_BUFFER_MISS:     531149
 DBUS_CONGESTED:        665
 WQ ROW_BUFFER_HIT:     297004  ROW_BUFFER_MISS:     407922  FULL:      17814

 AVG_CONGESTED_CYCLE: 3
 All warmup complete: 2
Channel 0 Bank busy for read cycles: 0
Channel 0 Bank busy for write cycles: 0
Channel 0
Rank 0
0banks busy for read cycles: 41412149
0banks busy for write cycles: 99176
1banks busy for read cycles: 39438474
1banks busy for write cycles: 21096135
2banks busy for read cycles: 6116208
2banks busy for write cycles: 8872737
3banks busy for read cycles: 777369
3banks busy for write cycles: 3418337
4banks busy for read cycles: 1469963
4banks busy for write cycles: 1520743
5banks busy for read cycles: 404991
5banks busy for write cycles: 929169
6banks busy for read cycles: 518313
6banks busy for write cycles: 724647
7banks busy for read cycles: 923067
7banks busy for write cycles: 1083278
8banks busy for read cycles: 4412022
8banks busy for write cycles: 6584384

CPU 0 Branch Prediction Accuracy: 99.8303% MPKI: 0.27836 Average ROB Occupancy at Mispredict: 116.824
Branch types
NOT_BRANCH: 41798375 83.5967%
BRANCH_DIRECT_JUMP: 445212 0.890424%
BRANCH_INDIRECT: 50481 0.100962%
BRANCH_CONDITIONAL: 5868224 11.7364%
BRANCH_DIRECT_CALL: 758223 1.51645%
BRANCH_INDIRECT_CALL: 160492 0.320984%
BRANCH_RETURN: 918715 1.83743%
BRANCH_OTHER: 0 0%

DRAM PAGES: 1048576
Allocated PAGES: 22424
