
*** ChampSim Multicore Out-of-Order Simulator ***

Warmup Instructions: 50000000
Simulation Instructions: 50000000
Number of CPUs: 1
LLC sets: 2048
LLC ways: 16
Off-chip DRAM Size: 4096 MB Channels: 1 Width: 64-bit Data Rate: 6400 MT/s
CPU 0 runs ../IPC-traces//server_016.champsimtrace.xz
.xz
BTB has LRU replacement policy
ITLB has LRU replacement policy
DTLB has LRU replacement policy
STLB has LRU replacement policy
CPU 0 L1I next line prefetcher
L1I has LRU replacement policy
L1D has LRU replacement policy
Bingo PHT WAYS: 16 and PHT_SIZE: 16384
Initialize SRRIP state for L2C
Initialize DRRIP state for LLC
Heartbeat CPU 0 instructions: 10000000 cycles: 2875424 heartbeat IPC: 3.47775 cumulative IPC: 3.47775 (Simulation time: 0 hr 3 min 24 sec) 
Heartbeat CPU 0 instructions: 20000000 cycles: 5745952 heartbeat IPC: 3.48368 cumulative IPC: 3.48071 (Simulation time: 0 hr 6 min 7 sec) 
Heartbeat CPU 0 instructions: 30000001 cycles: 8613440 heartbeat IPC: 3.48737 cumulative IPC: 3.48293 (Simulation time: 0 hr 8 min 45 sec) 
Heartbeat CPU 0 instructions: 40000001 cycles: 11767014 heartbeat IPC: 3.17101 cumulative IPC: 3.39933 (Simulation time: 0 hr 9 min 58 sec) 
Heartbeat CPU 0 instructions: 50000002 cycles: 15002478 heartbeat IPC: 3.09075 cumulative IPC: 3.33278 (Simulation time: 0 hr 10 min 44 sec) 

Warmup complete CPU 0 instructions: 50000002 cycles: 15002478 (Simulation time: 0 hr 10 min 44 sec) 

Heartbeat CPU 0 instructions: 60000001 cycles: 29634761 heartbeat IPC: 0.68342 cumulative IPC: 0.68342 (Simulation time: 0 hr 12 min 39 sec) 
Heartbeat CPU 0 instructions: 70000001 cycles: 45389865 heartbeat IPC: 0.634715 cumulative IPC: 0.658168 (Simulation time: 0 hr 15 min 10 sec) 
Heartbeat CPU 0 instructions: 80000001 cycles: 61252476 heartbeat IPC: 0.630413 cumulative IPC: 0.648649 (Simulation time: 0 hr 17 min 38 sec) 
Heartbeat CPU 0 instructions: 90000000 cycles: 76679162 heartbeat IPC: 0.648227 cumulative IPC: 0.648543 (Simulation time: 0 hr 20 min 5 sec) 
Heartbeat CPU 0 instructions: 100000000 cycles: 92353170 heartbeat IPC: 0.637999 cumulative IPC: 0.646407 (Simulation time: 0 hr 22 min 34 sec) 
Finished CPU 0 instructions: 50000000 cycles: 77350693 cumulative IPC: 0.646407 (Simulation time: 0 hr 22 min 34 sec) 

ChampSim completed all CPUs

Region of Interest Statistics

CPU 0 cumulative IPC: 0.646407 instructions: 50000000 cycles: 77350693

CPU 0 Average Load ROB stall cycles: 2.00293e+07
CPU 0 Fraction of times ROB stalled by Loads: 38.1145
CPU 0 Percentage of Load stall cycles in Total stall cycles: 2.85049e+08
Issued all: 28650085
Issued LT all: 22411116
rob_not_full_when_issued_lt_all: 22111596
Issued LT one: 18226314
rob_not_full_when_issued_lt_one: 17966034
FVP critical_dynamic_instances_0: 2523583
FVP unique_critical_ips_0: 5652
 Total stall cycles: 64283624
 Total load stall cycles: 183240117708267
Unique Load IPs: 13820
CPU 0 NUM of IPS identified critical: 0
CPU 0 Num of Load IPs stalling ROB: 0
Threshold modification factor: 0
Trouble in retire width: -nan
MaC = Marked as critical.
lt_50_percent_before_Mac: 0
gt_90_percent_before_Mac: 0
gt_75_percent_before_Mac: 0
gt_50_percent_before_Mac: 0
stall_proportion_bin_same_before_after: 0
stall_proportion_bin_lower_before_after: 0
stall_proportion_bin_upper_before_after: 0
average_stall_proportion_before: -nan
average_stall_proportion_after: -nan
Critical IP stalls, total frequency: 0
Non-critical IP stalls, total frequency: 0
Total Freq all stalling IPs: 0
Critical_IP_Detector_Accuracy_70: 0.000176929
Critical_IP_Detector_Accuracy_80: 0.000176929
Critical_IP_Detector_Accuracy_90: 0.000176929
Critical_IP_Detector_Coverage_70: 1
Critical_IP_Detector_Coverage_80: 1
Critical_IP_Detector_Coverage_90: 1
stat_90_percent_critical_ip_stalls_freq: 616062
stat_90_percent_non_critical_ip_stalls_freq: 18446744073708935554
AVERAGE_ROB_Occupancy_90_Percent_Critical_IP_Stalls: 18.0566
AVERAGE_ROB_Occupancy_90_Percent_Non_Critical_IP_Stalls: 7.45328e-12
Critical_IP_ROB_Stalls_Bucket_0: 0
Non-critical_IP_ROB_Stalls_Bucket_0: 2556783
Critical_IP_ROB_Stalls_Bucket_1: 0
Non-critical_IP_ROB_Stalls_Bucket_1: 604321
Critical_IP_ROB_Stalls_Bucket_2: 0
Non-critical_IP_ROB_Stalls_Bucket_2: 238100
Critical_IP_ROB_Stalls_Bucket_3: 0
Non-critical_IP_ROB_Stalls_Bucket_3: 46683
Critical_IP_ROB_Stalls_Bucket_4: 0
Non-critical_IP_ROB_Stalls_Bucket_4: 15637
Critical_IP_ROB_Stalls_Bucket_5: 0
Non-critical_IP_ROB_Stalls_Bucket_5: 7872
Critical_IP_ROB_Stalls_Bucket_6: 0
Non-critical_IP_ROB_Stalls_Bucket_6: 17540
0 => IPs accounting for >50 percent of stalls, 1 => 55, 2 => 60, 3 => 65 and so on till 90.
percent50: inf num IPs:  1
percent55: inf num IPs: 1
percent60: inf num IPs: 1
percent65: inf num IPs: 1
percent70: inf num IPs: 1
percent75: inf num IPs: 1
percent80: inf num IPs: 1
percent85: inf num IPs: 1
percent90: inf num IPs: 1
Critical_ROB_Stalls_Percent_0_Bucket_0: 610462
Non-critical_ROB_Stalls_Percent_0_Bucket_0: 1946321
Critical_ROB_Stalls_Percent_0_Bucket_1: 1127
Non-critical_ROB_Stalls_Percent_0_Bucket_1: 603194
Critical_ROB_Stalls_Percent_0_Bucket_2: 4473
Non-critical_ROB_Stalls_Percent_0_Bucket_2: 233627
Critical_ROB_Stalls_Percent_0_Bucket_3: 0
Non-critical_ROB_Stalls_Percent_0_Bucket_3: 46683
Critical_ROB_Stalls_Percent_0_Bucket_4: 0
Non-critical_ROB_Stalls_Percent_0_Bucket_4: 15637
Critical_ROB_Stalls_Percent_0_Bucket_5: 0
Non-critical_ROB_Stalls_Percent_0_Bucket_5: 7872
Critical_ROB_Stalls_Percent_0_Bucket_6: 0
Non-critical_ROB_Stalls_Percent_0_Bucket_6: 17540
Critical_ROB_Stalls_Percent_1_Bucket_0: 610462
Non-critical_ROB_Stalls_Percent_1_Bucket_0: 1946321
Critical_ROB_Stalls_Percent_1_Bucket_1: 1127
Non-critical_ROB_Stalls_Percent_1_Bucket_1: 603194
Critical_ROB_Stalls_Percent_1_Bucket_2: 4473
Non-critical_ROB_Stalls_Percent_1_Bucket_2: 233627
Critical_ROB_Stalls_Percent_1_Bucket_3: 0
Non-critical_ROB_Stalls_Percent_1_Bucket_3: 46683
Critical_ROB_Stalls_Percent_1_Bucket_4: 0
Non-critical_ROB_Stalls_Percent_1_Bucket_4: 15637
Critical_ROB_Stalls_Percent_1_Bucket_5: 0
Non-critical_ROB_Stalls_Percent_1_Bucket_5: 7872
Critical_ROB_Stalls_Percent_1_Bucket_6: 0
Non-critical_ROB_Stalls_Percent_1_Bucket_6: 17540
Critical_ROB_Stalls_Percent_2_Bucket_0: 610462
Non-critical_ROB_Stalls_Percent_2_Bucket_0: 1946321
Critical_ROB_Stalls_Percent_2_Bucket_1: 1127
Non-critical_ROB_Stalls_Percent_2_Bucket_1: 603194
Critical_ROB_Stalls_Percent_2_Bucket_2: 4473
Non-critical_ROB_Stalls_Percent_2_Bucket_2: 233627
Critical_ROB_Stalls_Percent_2_Bucket_3: 0
Non-critical_ROB_Stalls_Percent_2_Bucket_3: 46683
Critical_ROB_Stalls_Percent_2_Bucket_4: 0
Non-critical_ROB_Stalls_Percent_2_Bucket_4: 15637
Critical_ROB_Stalls_Percent_2_Bucket_5: 0
Non-critical_ROB_Stalls_Percent_2_Bucket_5: 7872
Critical_ROB_Stalls_Percent_2_Bucket_6: 0
Non-critical_ROB_Stalls_Percent_2_Bucket_6: 17540
Critical_ROB_Stalls_Percent_3_Bucket_0: 610462
Non-critical_ROB_Stalls_Percent_3_Bucket_0: 1946321
Critical_ROB_Stalls_Percent_3_Bucket_1: 1127
Non-critical_ROB_Stalls_Percent_3_Bucket_1: 603194
Critical_ROB_Stalls_Percent_3_Bucket_2: 4473
Non-critical_ROB_Stalls_Percent_3_Bucket_2: 233627
Critical_ROB_Stalls_Percent_3_Bucket_3: 0
Non-critical_ROB_Stalls_Percent_3_Bucket_3: 46683
Critical_ROB_Stalls_Percent_3_Bucket_4: 0
Non-critical_ROB_Stalls_Percent_3_Bucket_4: 15637
Critical_ROB_Stalls_Percent_3_Bucket_5: 0
Non-critical_ROB_Stalls_Percent_3_Bucket_5: 7872
Critical_ROB_Stalls_Percent_3_Bucket_6: 0
Non-critical_ROB_Stalls_Percent_3_Bucket_6: 17540
Critical_ROB_Stalls_Percent_4_Bucket_0: 610462
Non-critical_ROB_Stalls_Percent_4_Bucket_0: 1946321
Critical_ROB_Stalls_Percent_4_Bucket_1: 1127
Non-critical_ROB_Stalls_Percent_4_Bucket_1: 603194
Critical_ROB_Stalls_Percent_4_Bucket_2: 4473
Non-critical_ROB_Stalls_Percent_4_Bucket_2: 233627
Critical_ROB_Stalls_Percent_4_Bucket_3: 0
Non-critical_ROB_Stalls_Percent_4_Bucket_3: 46683
Critical_ROB_Stalls_Percent_4_Bucket_4: 0
Non-critical_ROB_Stalls_Percent_4_Bucket_4: 15637
Critical_ROB_Stalls_Percent_4_Bucket_5: 0
Non-critical_ROB_Stalls_Percent_4_Bucket_5: 7872
Critical_ROB_Stalls_Percent_4_Bucket_6: 0
Non-critical_ROB_Stalls_Percent_4_Bucket_6: 17540
Critical_ROB_Stalls_Percent_5_Bucket_0: 610462
Non-critical_ROB_Stalls_Percent_5_Bucket_0: 1946321
Critical_ROB_Stalls_Percent_5_Bucket_1: 1127
Non-critical_ROB_Stalls_Percent_5_Bucket_1: 603194
Critical_ROB_Stalls_Percent_5_Bucket_2: 4473
Non-critical_ROB_Stalls_Percent_5_Bucket_2: 233627
Critical_ROB_Stalls_Percent_5_Bucket_3: 0
Non-critical_ROB_Stalls_Percent_5_Bucket_3: 46683
Critical_ROB_Stalls_Percent_5_Bucket_4: 0
Non-critical_ROB_Stalls_Percent_5_Bucket_4: 15637
Critical_ROB_Stalls_Percent_5_Bucket_5: 0
Non-critical_ROB_Stalls_Percent_5_Bucket_5: 7872
Critical_ROB_Stalls_Percent_5_Bucket_6: 0
Non-critical_ROB_Stalls_Percent_5_Bucket_6: 17540
Critical_ROB_Stalls_Percent_6_Bucket_0: 610462
Non-critical_ROB_Stalls_Percent_6_Bucket_0: 1946321
Critical_ROB_Stalls_Percent_6_Bucket_1: 1127
Non-critical_ROB_Stalls_Percent_6_Bucket_1: 603194
Critical_ROB_Stalls_Percent_6_Bucket_2: 4473
Non-critical_ROB_Stalls_Percent_6_Bucket_2: 233627
Critical_ROB_Stalls_Percent_6_Bucket_3: 0
Non-critical_ROB_Stalls_Percent_6_Bucket_3: 46683
Critical_ROB_Stalls_Percent_6_Bucket_4: 0
Non-critical_ROB_Stalls_Percent_6_Bucket_4: 15637
Critical_ROB_Stalls_Percent_6_Bucket_5: 0
Non-critical_ROB_Stalls_Percent_6_Bucket_5: 7872
Critical_ROB_Stalls_Percent_6_Bucket_6: 0
Non-critical_ROB_Stalls_Percent_6_Bucket_6: 17540
Critical_ROB_Stalls_Percent_7_Bucket_0: 610462
Non-critical_ROB_Stalls_Percent_7_Bucket_0: 1946321
Critical_ROB_Stalls_Percent_7_Bucket_1: 1127
Non-critical_ROB_Stalls_Percent_7_Bucket_1: 603194
Critical_ROB_Stalls_Percent_7_Bucket_2: 4473
Non-critical_ROB_Stalls_Percent_7_Bucket_2: 233627
Critical_ROB_Stalls_Percent_7_Bucket_3: 0
Non-critical_ROB_Stalls_Percent_7_Bucket_3: 46683
Critical_ROB_Stalls_Percent_7_Bucket_4: 0
Non-critical_ROB_Stalls_Percent_7_Bucket_4: 15637
Critical_ROB_Stalls_Percent_7_Bucket_5: 0
Non-critical_ROB_Stalls_Percent_7_Bucket_5: 7872
Critical_ROB_Stalls_Percent_7_Bucket_6: 0
Non-critical_ROB_Stalls_Percent_7_Bucket_6: 17540
Critical_ROB_Stalls_Percent_8_Bucket_0: 610462
Non-critical_ROB_Stalls_Percent_8_Bucket_0: 1946321
Critical_ROB_Stalls_Percent_8_Bucket_1: 1127
Non-critical_ROB_Stalls_Percent_8_Bucket_1: 603194
Critical_ROB_Stalls_Percent_8_Bucket_2: 4473
Non-critical_ROB_Stalls_Percent_8_Bucket_2: 233627
Critical_ROB_Stalls_Percent_8_Bucket_3: 0
Non-critical_ROB_Stalls_Percent_8_Bucket_3: 46683
Critical_ROB_Stalls_Percent_8_Bucket_4: 0
Non-critical_ROB_Stalls_Percent_8_Bucket_4: 15637
Critical_ROB_Stalls_Percent_8_Bucket_5: 0
Non-critical_ROB_Stalls_Percent_8_Bucket_5: 7872
Critical_ROB_Stalls_Percent_8_Bucket_6: 0
Non-critical_ROB_Stalls_Percent_8_Bucket_6: 17540
Average ROB occupancy Load Stall Begin: 34.6815
Average ROB occupancy Load Stall End: 42.6198
Min ROB occupancy Load Stall Begin: 1
Max ROB occupancy Load Stall Begin: 352
Min ROB occupancy Load Stall End: 1
Max ROB occupancy Load Stall End: 352
Average ROB occupancy Critical Load Stall Begin: -nan
Average ROB occupancy Critical Load Stall End: -nan
Min ROB occupancy Critical Load Stall Begin: 400
Max ROB occupancy Critical Load Stall Begin: 0
Min ROB occupancy Critical Load Stall End: 400
Max ROB occupancy Critical Load Stall End: 0
 ROB Load Stall Begin Bucket Count 0: 2756640
 ROB Load Stall End Bucket Count 0: 2556783
 ROB Critical Load Stall Begin Bucket Count 0: 0
 ROB Critical Load Stall End Bucket Count 0: 0
 ROB Load Stall Begin Bucket Count 1: 482401
 ROB Load Stall End Bucket Count 1: 604321
 ROB Critical Load Stall Begin Bucket Count 1: 0
 ROB Critical Load Stall End Bucket Count 1: 0
 ROB Load Stall Begin Bucket Count 2: 178776
 ROB Load Stall End Bucket Count 2: 238100
 ROB Critical Load Stall Begin Bucket Count 2: 0
 ROB Critical Load Stall End Bucket Count 2: 0
 ROB Load Stall Begin Bucket Count 3: 32393
 ROB Load Stall End Bucket Count 3: 46683
 ROB Critical Load Stall Begin Bucket Count 3: 0
 ROB Critical Load Stall End Bucket Count 3: 0
 ROB Load Stall Begin Bucket Count 4: 12867
 ROB Load Stall End Bucket Count 4: 15637
 ROB Critical Load Stall Begin Bucket Count 4: 0
 ROB Critical Load Stall End Bucket Count 4: 0
 ROB Load Stall Begin Bucket Count 5: 7230
 ROB Load Stall End Bucket Count 5: 7872
 ROB Critical Load Stall Begin Bucket Count 5: 0
 ROB Critical Load Stall End Bucket Count 5: 0
 ROB Load Stall Begin Bucket Count 6: 16630
 ROB Load Stall End Bucket Count 6: 17540
 ROB Critical Load Stall Begin Bucket Count 6: 0
 ROB Critical Load Stall End Bucket Count 6: 0
PIST Tag Read Accesses: 0
PIST Read Accesses: 0
PIST Tag Write Accesses: 0
PIST Write Accesses: 0
Criticality detector called times: 0
Max global_stall_cycles_count: 0
Threshold Modified: 0 times, factor: 0
ITLB TOTAL     ACCESS:   10319737  HIT:    9801832  MISS:     517905  HIT %:    94.9814  MISS %:    5.01859   MPKI: 10.3581
ITLB LOAD TRANSLATION ACCESS:    8796800  HIT:    8723764  MISS:      73036  HIT %:    99.1697  MISS %:   0.830256   MPKI: 1.46072
ITLB TRANSLATION FROM L1D PREFETCHER ACCESS:    1522937  HIT:    1078068  MISS:     444869  HIT %:    70.7887  MISS %:    29.2113   MPKI: 8.89738
ITLB PREFETCH  REQUESTED:          0  ISSUED:          0  USEFUL:     348978  USELESS:      95895
ITLB USEFUL LOAD PREFETCHES:     348978 PREFETCH ISSUED TO LOWER LEVEL:          0  ACCURACY: inf
ITLB TIMELY PREFETCHES:     348978 LATE PREFETCHES: 318 DROPPED PREFETCHES: 3202
ITLB PREFETCHES SAME FILL-ORIGIN LEVEL: 0 DIFFERENT FILL-ORIGIN LEVEL: 0
ITLB AVERAGE MISS LATENCY: 35020.1 cycles
ITLB RQ	ACCESS:   14223928	FORWARD:          0	MERGED:    3867787	TO_CACHE:   10356141

DTLB TOTAL     ACCESS:   10183326  HIT:    9799708  MISS:     383618  HIT %:    96.2329  MISS %:    3.76712   MPKI: 7.67236
DTLB LOAD TRANSLATION ACCESS:   10183326  HIT:    9799708  MISS:     383618  HIT %:    96.2329  MISS %:    3.76712   MPKI: 7.67236
DTLB PREFETCH  REQUESTED:          0  ISSUED:          0  USEFUL:          0  USELESS:          0
DTLB USEFUL LOAD PREFETCHES:          0 PREFETCH ISSUED TO LOWER LEVEL:          0  ACCURACY: -nan
DTLB TIMELY PREFETCHES:          0 LATE PREFETCHES: 0 DROPPED PREFETCHES: 0
DTLB PREFETCHES SAME FILL-ORIGIN LEVEL: 0 DIFFERENT FILL-ORIGIN LEVEL: 0
DTLB AVERAGE MISS LATENCY: 9.38761 cycles
DTLB RQ	ACCESS:   13092310	FORWARD:          0	MERGED:    2887072	TO_CACHE:   10205238

STLB TOTAL     ACCESS:     901523  HIT:     899497  MISS:       2026  HIT %:    99.7753  MISS %:   0.224731   MPKI: 0.04052
STLB LOAD TRANSLATION ACCESS:     456336  HIT:     454453  MISS:       1883  HIT %:    99.5874  MISS %:   0.412635   MPKI: 0.03766
STLB TRANSLATION FROM L1D PREFETCHER ACCESS:     445187  HIT:     445044  MISS:        143  HIT %:    99.9679  MISS %:  0.0321213   MPKI: 0.00286
STLB PREFETCH  REQUESTED:          0  ISSUED:          0  USEFUL:        127  USELESS:         16
STLB USEFUL LOAD PREFETCHES:        127 PREFETCH ISSUED TO LOWER LEVEL:          0  ACCURACY: inf
STLB TIMELY PREFETCHES:        127 LATE PREFETCHES: 0 DROPPED PREFETCHES: 3202
STLB PREFETCHES SAME FILL-ORIGIN LEVEL: 0 DIFFERENT FILL-ORIGIN LEVEL: 0
STLB AVERAGE MISS LATENCY: 77.1461 cycles
STLB RQ	ACCESS:     904725	FORWARD:          0	MERGED:          0	TO_CACHE:     904725

STLB Hit, L1D data hit: 0
STLB Hit, L2C data hit: 0
STLB Hit, LLC data hit: 0
STLB Hit, LLC data miss: 0
STLB STLB hints to L2: 0
L1D TOTAL     ACCESS:   12690504  HIT:   11861943  MISS:     828561  HIT %:     93.471  MISS %:    6.52898   MPKI: 16.5712
L1D LOAD      ACCESS:    7418942  HIT:    6817955  MISS:     600987  HIT %:    91.8993  MISS %:    8.10071   MPKI: 12.0197
L1D RFO       ACCESS:    5271562  HIT:    5043988  MISS:     227574  HIT %:     95.683  MISS %:    4.31701   MPKI: 4.55148
L1D PREFETCH  REQUESTED:          0  ISSUED:          0  USEFUL:          0  USELESS:          0
L1D USEFUL LOAD PREFETCHES:          0 PREFETCH ISSUED TO LOWER LEVEL:          0  ACCURACY: -nan
L1D TIMELY PREFETCHES:          0 LATE PREFETCHES: 0 DROPPED PREFETCHES: 0
L1D PREFETCHES SAME FILL-ORIGIN LEVEL: 0 DIFFERENT FILL-ORIGIN LEVEL: 0
L1D AVERAGE MISS LATENCY: 24.5488 cycles
L1D RQ	ACCESS:   10330271	FORWARD:          0	MERGED:    2773120	TO_CACHE:    7450028
L1D WQ	ACCESS:    5697707	FORWARD:     107123	MERGED:      55425	TO_CACHE:    5642282

L1D UNIQUE REGIONS ACCESSED: 0
L1D REGIONS CONFLICTS: 0
L1D Cross Page Prefetch Requests: 0
L1D Same Page Prefetch Requests: 0
L1D ROI Sum of L1D PQ occupancy: 0
L1D PREFETCHES PUSHED FROM L2C: 0
L1I TOTAL     ACCESS:   14101008  HIT:   10998042  MISS:    3102966  HIT %:    77.9947  MISS %:    22.0053   MPKI: 62.0593
L1I LOAD      ACCESS:    9937296  HIT:    9716823  MISS:     220473  HIT %:    97.7814  MISS %:    2.21864   MPKI: 4.40946
L1I PREFETCH  ACCESS:    4163712  HIT:    1281219  MISS:    2882493  HIT %:    30.7711  MISS %:    69.2289   MPKI: 57.6499
L1I PREFETCH  REQUESTED:    4368216  ISSUED:    4358041  USEFUL:    1955739  USELESS:     926700
L1I USEFUL LOAD PREFETCHES:    1955739 PREFETCH ISSUED TO LOWER LEVEL:    2908191  ACCURACY: 67.2493
L1I TIMELY PREFETCHES:    1955739 LATE PREFETCHES: 25410 DROPPED PREFETCHES: 7816
L1I PREFETCHES SAME FILL-ORIGIN LEVEL: 2908191 DIFFERENT FILL-ORIGIN LEVEL: 0
L1I AVERAGE MISS LATENCY: 488350 cycles
L1I RQ	ACCESS:   13362837	FORWARD:          0	MERGED:    3405322	TO_CACHE:    9957515
L1I PQ	ACCESS:    4358041	FORWARD:          0	MERGED:      91628	TO_CACHE:    4266413

BTB TOTAL     ACCESS:    6534034  HIT:    5095597  MISS:    1438437  HIT %:    77.9855  MISS %:    22.0145   MPKI: 28.7687
BTB BRANCH_DIRECT_JUMP	ACCESS:     487044  HIT:     364834  MISS:     122210
BTB BRANCH_INDIRECT	ACCESS:     169158  HIT:     142414  MISS:      26744
BTB BRANCH_CONDITIONAL	ACCESS:    4098719  HIT:    3717570  MISS:     381149
BTB BRANCH_DIRECT_CALL	ACCESS:     755585  HIT:     471450  MISS:     284135
BTB BRANCH_INDIRECT_CALL	ACCESS:     133962  HIT:      76124  MISS:      57838
BTB BRANCH_RETURN	ACCESS:     889566  HIT:     323205  MISS:     566361
BTB BRANCH_OTHER ACCESS:          0  HIT:          0  MISS:          0

L2C TOTAL     ACCESS:    4420852  HIT:    3953666  MISS:     467186  HIT %:    89.4322  MISS %:    10.5678   MPKI: 9.34372
L2C LOAD      ACCESS:     795994  HIT:     673436  MISS:     122558  HIT %:    84.6032  MISS %:    15.3968   MPKI: 2.45116
L2C DATA LOAD MPKI: 1.88314
L2C INSTRUCTION LOAD MPKI: 0.56802
L2C RFO       ACCESS:     227569  HIT:     175279  MISS:      52290  HIT %:    77.0224  MISS %:    22.9776   MPKI: 1.0458
L2C PREFETCH  ACCESS:    3003294  HIT:    2732112  MISS:     271182  HIT %:    90.9705  MISS %:    9.02949   MPKI: 5.42364
L2C DATA PREFETCH MPKI: 0.7266
L2C INSTRUCTION PREFETCH MPKI: 4.69704
L2C WRITEBACK ACCESS:     386413  HIT:     367093  MISS:      19320  HIT %:    95.0002  MISS %:    4.99983   MPKI: 0.3864
L2C LOAD TRANSLATION ACCESS:       2109  HIT:        535  MISS:       1574  HIT %:    25.3675  MISS %:    74.6325   MPKI: 0.03148
L2C TRANSLATION FROM L1D PREFETCHER ACCESS:       5473  HIT:       5211  MISS:        262  HIT %:    95.2129  MISS %:    4.78714   MPKI: 0.00524
L2C PREFETCH  REQUESTED:      99446  ISSUED:      99446  USEFUL:      24495  USELESS:     245399
L2C USEFUL LOAD PREFETCHES:      24495 PREFETCH ISSUED TO LOWER LEVEL:     273977  ACCURACY: 8.94053
L2C TIMELY PREFETCHES:      24495 LATE PREFETCHES: 2795 DROPPED PREFETCHES: 0
L2C PREFETCHES SAME FILL-ORIGIN LEVEL: 39125 DIFFERENT FILL-ORIGIN LEVEL: 0
L2C AVERAGE MISS LATENCY: 40.0405 cycles
L2C RQ	ACCESS:    1031206	FORWARD:          0	MERGED:          0	TO_CACHE:    1031145
L2C WQ	ACCESS:     386413	FORWARD:         61	MERGED:          0	TO_CACHE:     386413
L2C PQ	ACCESS:    3007350	FORWARD:          0	MERGED:          0	TO_CACHE:    3007350

L2C Instructions Evicting Data 106351
L2C Translations Evicting Data 1166
L2C Data Evicting Data 88422
L2C Instructions Evicting Instructions 156191
L2C Translations Evicting Instructions 649
L2C Data Evicting Instructions 93246
L2C Instructions Evicting Translations 711
L2C Translations Evicting Translations 21
L2C Data Evicting Translations 1109
L2C Dense regions hint from L2: 0
PSCL5 TOTAL     ACCESS:       5228  HIT:       5228  MISS:          0  HIT %:        100  MISS %:          0   MPKI: 0
PSCL5 LOAD TRANSLATION ACCESS:       1883  HIT:       1883  MISS:          0  HIT %:        100  MISS %:          0   MPKI: 0
PSCL5 TRANSLATION FROM L1D PREFETCHER ACCESS:       3345  HIT:       3345  MISS:          0  HIT %:        100  MISS %:          0   MPKI: 0
PSCL5 PREFETCH  REQUESTED:          0  ISSUED:          0  USEFUL:          0  USELESS:          0
PSCL5 USEFUL LOAD PREFETCHES:          0 PREFETCH ISSUED TO LOWER LEVEL:          0  ACCURACY: -nan
PSCL5 TIMELY PREFETCHES:          0 LATE PREFETCHES: 0 DROPPED PREFETCHES: 0
PSCL5 PREFETCHES SAME FILL-ORIGIN LEVEL: 0 DIFFERENT FILL-ORIGIN LEVEL: 0

PSCL4 TOTAL     ACCESS:       4916  HIT:       4904  MISS:         12  HIT %:    99.7559  MISS %:   0.244101   MPKI: 0.00024
PSCL4 LOAD TRANSLATION ACCESS:       1664  HIT:       1652  MISS:         12  HIT %:    99.2788  MISS %:   0.721154   MPKI: 0.00024
PSCL4 TRANSLATION FROM L1D PREFETCHER ACCESS:       3252  HIT:       3252  MISS:          0  HIT %:        100  MISS %:          0   MPKI: 0
PSCL4 PREFETCH  REQUESTED:          0  ISSUED:          0  USEFUL:          0  USELESS:          0
PSCL4 USEFUL LOAD PREFETCHES:          0 PREFETCH ISSUED TO LOWER LEVEL:          0  ACCURACY: -nan
PSCL4 TIMELY PREFETCHES:          0 LATE PREFETCHES: 0 DROPPED PREFETCHES: 0
PSCL4 PREFETCHES SAME FILL-ORIGIN LEVEL: 0 DIFFERENT FILL-ORIGIN LEVEL: 0

PSCL3 TOTAL     ACCESS:       5090  HIT:       5078  MISS:         12  HIT %:    99.7642  MISS %:   0.235756   MPKI: 0.00024
PSCL3 LOAD TRANSLATION ACCESS:       1838  HIT:       1826  MISS:         12  HIT %:    99.3471  MISS %:   0.652884   MPKI: 0.00024
PSCL3 TRANSLATION FROM L1D PREFETCHER ACCESS:       3252  HIT:       3252  MISS:          0  HIT %:        100  MISS %:          0   MPKI: 0
PSCL3 PREFETCH  REQUESTED:          0  ISSUED:          0  USEFUL:          0  USELESS:          0
PSCL3 USEFUL LOAD PREFETCHES:          0 PREFETCH ISSUED TO LOWER LEVEL:          0  ACCURACY: -nan
PSCL3 TIMELY PREFETCHES:          0 LATE PREFETCHES: 0 DROPPED PREFETCHES: 0
PSCL3 PREFETCHES SAME FILL-ORIGIN LEVEL: 0 DIFFERENT FILL-ORIGIN LEVEL: 0

PSCL2 TOTAL     ACCESS:       3264  HIT:       3028  MISS:        236  HIT %:    92.7696  MISS %:    7.23039   MPKI: 0.00472
PSCL2 LOAD TRANSLATION ACCESS:       1913  HIT:       1677  MISS:        236  HIT %:    87.6634  MISS %:    12.3366   MPKI: 0.00472
PSCL2 TRANSLATION FROM L1D PREFETCHER ACCESS:       1351  HIT:       1351  MISS:          0  HIT %:        100  MISS %:          0   MPKI: 0
PSCL2 PREFETCH  REQUESTED:          0  ISSUED:          0  USEFUL:          0  USELESS:          0
PSCL2 USEFUL LOAD PREFETCHES:          0 PREFETCH ISSUED TO LOWER LEVEL:          0  ACCURACY: -nan
PSCL2 TIMELY PREFETCHES:          0 LATE PREFETCHES: 0 DROPPED PREFETCHES: 0
PSCL2 PREFETCHES SAME FILL-ORIGIN LEVEL: 0 DIFFERENT FILL-ORIGIN LEVEL: 0

LLC TOTAL     ACCESS:     524323  HIT:     493060  MISS:      31263  HIT %:    94.0375  MISS %:    5.96255   MPKI: 0.62526
LLC LOAD      ACCESS:     119762  HIT:     112931  MISS:       6831  HIT %:    94.2962  MISS %:    5.70381   MPKI: 0.13662
LLC RFO       ACCESS:      52288  HIT:      37682  MISS:      14606  HIT %:    72.0662  MISS %:    27.9338   MPKI: 0.29212
LLC PREFETCH  ACCESS:     273977  HIT:     264642  MISS:       9335  HIT %:    96.5928  MISS %:    3.40722   MPKI: 0.1867
LLC WRITEBACK ACCESS:      76460  HIT:      76103  MISS:        357  HIT %:    99.5331  MISS %:   0.466911   MPKI: 0.00714
LLC LOAD TRANSLATION ACCESS:       1574  HIT:       1455  MISS:        119  HIT %:    92.4396  MISS %:    7.56036   MPKI: 0.00238
LLC TRANSLATION FROM L1D PREFETCHER ACCESS:        262  HIT:        247  MISS:         15  HIT %:    94.2748  MISS %:    5.72519   MPKI: 0.0003
LLC PREFETCH  REQUESTED:          0  ISSUED:          0  USEFUL:        453  USELESS:       4694
LLC USEFUL LOAD PREFETCHES:        453 PREFETCH ISSUED TO LOWER LEVEL:       9335  ACCURACY: 4.8527
LLC TIMELY PREFETCHES:        453 LATE PREFETCHES: 0 DROPPED PREFETCHES: 0
LLC PREFETCHES SAME FILL-ORIGIN LEVEL: 0 DIFFERENT FILL-ORIGIN LEVEL: 0
LLC AVERAGE MISS LATENCY: 168.981 cycles
LLC RQ	ACCESS:     173889	FORWARD:          0	MERGED:          0	TO_CACHE:     173886
LLC WQ	ACCESS:      76460	FORWARD:          3	MERGED:          0	TO_CACHE:      76460
LLC PQ	ACCESS:     273977	FORWARD:          0	MERGED:          0	TO_CACHE:     273977

LLC Dense regions hint to LLC: 0

RAW hits: 802039
Loads Generated: 11132312
Loads sent to L1D: 10330271
Stores Generated: 5697707
Stores sent to L1D: 5697707
Major fault: 0 Minor fault: 2472
Allocated PAGES: 2472
I-Shadow cache 408 bytes
Touched + WorthPF tables 6144 bytes 
MMA filter 174 bytes 
FNL filter 272 bytes 
TOTAL PREFETCHER STORAGE SIZE: 25174 bytes
CPU 0 L1I next line prefetcher final stats
[Bingo] PHT Access: 32791
[Bingo] PHT Hit PC+Addr: 16763
[Bingo] PHT Hit PC+Offs: 8843
[Bingo] PHT Miss: 7185
[Bingo] Prefetch PC+Addr: 0
[Bingo] Prefetch PC+Offs: 0
[Bingo] Useful PC+Addr: 0
[Bingo] Useful PC+Offs: 0
[Bingo] Useless PC+Addr: 0
[Bingo] Useless PC+Offs: 0
[Bingo] L1 Prefetch per Region: 0
[Bingo] L2 Prefetch per Region: 4.88518
[Bingo] L3 Prefetch per Region: 0
[Bingo] No Prefetch per Region: 27.1148
[Bingo] Number of Voters Mean: 7.52686
[Bingo] Number of Voters SD: 5.285
PHT read accesses: 138662
PHT write accesses: 9559
AT read accesses: 111887
AT write accesses: 111891
FT read accesses: 55170
FT write accesses: 32791
PS read accesses: 55074
PS write accesses: 25606
PHT tag read accesses: 473543
PHT tag write accesses: 26322
AT tag read accesses: 10075693
AT tag write accesses: 121450
FT tag read accesses: 9260859
FT tag write accesses: 72627
PS tag read accesses: 3103897
PS tag write accesses: 80666

DRAM Statistics
 CHANNEL 0
 RQ ROW_BUFFER_HIT:      10952  ROW_BUFFER_MISS:      19947
 DBUS_CONGESTED:          2
 WQ ROW_BUFFER_HIT:       1605  ROW_BUFFER_MISS:      14086  FULL:          0

 AVG_CONGESTED_CYCLE: 6
 All warmup complete: 2
Channel 0 Bank busy for read cycles: 0
Channel 0 Bank busy for write cycles: 0
Channel 0
Rank 0
0banks busy for read cycles: 74818839
0banks busy for write cycles: 3572
1banks busy for read cycles: 955961
1banks busy for write cycles: 454287
2banks busy for read cycles: 190465
2banks busy for write cycles: 145472
3banks busy for read cycles: 88513
3banks busy for write cycles: 87968
4banks busy for read cycles: 65185
4banks busy for write cycles: 60040
5banks busy for read cycles: 51436
5banks busy for write cycles: 49513
6banks busy for read cycles: 51401
6banks busy for write cycles: 53279
7banks busy for read cycles: 48951
7banks busy for write cycles: 44859
8banks busy for read cycles: 98517
8banks busy for write cycles: 82436

CPU 0 Branch Prediction Accuracy: 99.7225% MPKI: 0.50376 Average ROB Occupancy at Mispredict: 58.5756
Branch types
NOT_BRANCH: 40923872 81.8477%
BRANCH_DIRECT_JUMP: 487044 0.974088%
BRANCH_INDIRECT: 169158 0.338316%
BRANCH_CONDITIONAL: 6640823 13.2816%
BRANCH_DIRECT_CALL: 755585 1.51117%
BRANCH_INDIRECT_CALL: 133962 0.267924%
BRANCH_RETURN: 889566 1.77913%
BRANCH_OTHER: 0 0%

DRAM PAGES: 1048576
Allocated PAGES: 2472
