
*** ChampSim Multicore Out-of-Order Simulator ***

Warmup Instructions: 50000000
Simulation Instructions: 50000000
Number of CPUs: 1
LLC sets: 2048
LLC ways: 16
Off-chip DRAM Size: 4096 MB Channels: 1 Width: 64-bit Data Rate: 6400 MT/s
CPU 0 runs ../IPC-traces//server_013.champsimtrace.xz
.xz
NUM_OF_IPS_IN_CRITICAL_IP_TRAINING: 64
NUM_OF_CRITICAL_IP_TRAINING_TABLE_WAYS: 2
NUM_OF_CRITICAL_IP_TRAINING_TABLE_SETS: 32
WOBBLY_CRITICAL_IP_CACHE_SETS: 32
WOBBLY_CRITICAL_IP_CACHE_WAYS: 4
BTB has LRU replacement policy
ITLB has LRU replacement policy
DTLB has LRU replacement policy
STLB has LRU replacement policy
CPU 0 L1I next line prefetcher
L1I has LRU replacement policy
IP Table Entries: 256
L1D has LRU replacement policy
Initialize SRRIP state for L2C
Initialize DRRIP state for LLC
Heartbeat CPU 0 instructions: 10000000 cycles: 2765125 heartbeat IPC: 3.61647 cumulative IPC: 3.61647 (Simulation time: 0 hr 2 min 56 sec) 
Heartbeat CPU 0 instructions: 20000001 cycles: 5521110 heartbeat IPC: 3.62847 cumulative IPC: 3.62246 (Simulation time: 0 hr 5 min 32 sec) 
Heartbeat CPU 0 instructions: 30000002 cycles: 8277899 heartbeat IPC: 3.62741 cumulative IPC: 3.62411 (Simulation time: 0 hr 7 min 43 sec) 
Heartbeat CPU 0 instructions: 40000003 cycles: 11033610 heartbeat IPC: 3.62883 cumulative IPC: 3.62529 (Simulation time: 0 hr 9 min 42 sec) 
Heartbeat CPU 0 instructions: 50000000 cycles: 13791359 heartbeat IPC: 3.62614 cumulative IPC: 3.62546 (Simulation time: 0 hr 11 min 36 sec) 

Warmup complete CPU 0 instructions: 50000004 cycles: 13791360 (Simulation time: 0 hr 11 min 36 sec) 

Heartbeat CPU 0 instructions: 60000000 cycles: 28374410 heartbeat IPC: 0.685728 cumulative IPC: 0.685727 (Simulation time: 0 hr 14 min 2 sec) 
Heartbeat CPU 0 instructions: 70000003 cycles: 43132273 heartbeat IPC: 0.677605 cumulative IPC: 0.681642 (Simulation time: 0 hr 16 min 19 sec) 
Heartbeat CPU 0 instructions: 80000003 cycles: 57360640 heartbeat IPC: 0.702821 cumulative IPC: 0.688559 (Simulation time: 0 hr 18 min 34 sec) 
Heartbeat CPU 0 instructions: 90000003 cycles: 71716640 heartbeat IPC: 0.696573 cumulative IPC: 0.690545 (Simulation time: 0 hr 20 min 49 sec) 
Heartbeat CPU 0 instructions: 100000000 cycles: 86070976 heartbeat IPC: 0.696653 cumulative IPC: 0.691758 (Simulation time: 0 hr 22 min 58 sec) 
Finished CPU 0 instructions: 50000000 cycles: 72279617 cumulative IPC: 0.691758 (Simulation time: 0 hr 22 min 58 sec) 

ChampSim completed all CPUs

Region of Interest Statistics

CPU 0 cumulative IPC: 0.691758 instructions: 50000000 cycles: 72279617

CPU 0 Average Load ROB stall cycles: 1.9291e+07
CPU 0 Fraction of times ROB stalled by Loads: 38.5203
CPU 0 Percentage of Load stall cycles in Total stall cycles: 2.21124e+08
Issued all: 27635292
Issued LT all: 21501727
rob_not_full_when_issued_lt_all: 20304327
Issued LT one: 17132212
rob_not_full_when_issued_lt_one: 16099368
 Total stall cycles: 58938567
 Total load stall cycles: 130327346862172
CPU 0 NUM of IPS identified critical: 0
CPU 0 Num of Load IPs stalling ROB: 25420
Threshold modification factor: 0
Max PIST entries: 64
Min PIST entries: 0
Avg PIST entries: 32
Trouble in retire width: 0.88913
MaC = Marked as critical.
lt_50_percent_before_Mac: 0
gt_90_percent_before_Mac: 0
gt_75_percent_before_Mac: 0
gt_50_percent_before_Mac: 0
stall_proportion_bin_same_before_after: 0
stall_proportion_bin_lower_before_after: 0
stall_proportion_bin_upper_before_after: 0
average_stall_proportion_before: -nan
average_stall_proportion_after: -nan
Critical IP stalls, total frequency: 0
Non-critical IP stalls, total frequency: 2602379
Total Freq all stalling IPs: 2602379
stat_90_percent_critical_ip_stalls_freq: 2342166
stat_90_percent_non_critical_ip_stalls_freq: 260213
Critical_IP_ROB_Stalls_Bucket_0: 0
Non-critical_IP_ROB_Stalls_Bucket_0: 1334838
Critical_IP_ROB_Stalls_Bucket_1: 0
Non-critical_IP_ROB_Stalls_Bucket_1: 752113
Critical_IP_ROB_Stalls_Bucket_2: 0
Non-critical_IP_ROB_Stalls_Bucket_2: 280960
Critical_IP_ROB_Stalls_Bucket_3: 0
Non-critical_IP_ROB_Stalls_Bucket_3: 97164
Critical_IP_ROB_Stalls_Bucket_4: 0
Non-critical_IP_ROB_Stalls_Bucket_4: 49301
Critical_IP_ROB_Stalls_Bucket_5: 0
Non-critical_IP_ROB_Stalls_Bucket_5: 28454
Critical_IP_ROB_Stalls_Bucket_6: 0
Non-critical_IP_ROB_Stalls_Bucket_6: 59549
0 => IPs accounting for >50 percent of stalls, 1 => 55, 2 => 60, 3 => 65 and so on till 90.
percent50: 50.0362 num IPs:  310
percent55: 55.0115 num IPs: 457
percent60: 60.0071 num IPs: 653
percent65: 65.0119 num IPs: 910
percent70: 70.0078 num IPs: 1278
percent75: 75.0054 num IPs: 1864
percent80: 80.0027 num IPs: 2787
percent85: 85.0031 num IPs: 4067
percent90: 90.0005 num IPs: 6000
Critical_ROB_Stalls_Percent_0_Bucket_0: 629027
Non-critical_ROB_Stalls_Percent_0_Bucket_0: 705811
Critical_ROB_Stalls_Percent_0_Bucket_1: 425522
Non-critical_ROB_Stalls_Percent_0_Bucket_1: 326591
Critical_ROB_Stalls_Percent_0_Bucket_2: 155916
Non-critical_ROB_Stalls_Percent_0_Bucket_2: 125044
Critical_ROB_Stalls_Percent_0_Bucket_3: 37512
Non-critical_ROB_Stalls_Percent_0_Bucket_3: 59652
Critical_ROB_Stalls_Percent_0_Bucket_4: 17691
Non-critical_ROB_Stalls_Percent_0_Bucket_4: 31610
Critical_ROB_Stalls_Percent_0_Bucket_5: 8654
Non-critical_ROB_Stalls_Percent_0_Bucket_5: 19800
Critical_ROB_Stalls_Percent_0_Bucket_6: 27809
Non-critical_ROB_Stalls_Percent_0_Bucket_6: 31740
Critical_ROB_Stalls_Percent_1_Bucket_0: 682616
Non-critical_ROB_Stalls_Percent_1_Bucket_0: 652222
Critical_ROB_Stalls_Percent_1_Bucket_1: 474002
Non-critical_ROB_Stalls_Percent_1_Bucket_1: 278111
Critical_ROB_Stalls_Percent_1_Bucket_2: 172062
Non-critical_ROB_Stalls_Percent_1_Bucket_2: 108898
Critical_ROB_Stalls_Percent_1_Bucket_3: 43292
Non-critical_ROB_Stalls_Percent_1_Bucket_3: 53872
Critical_ROB_Stalls_Percent_1_Bucket_4: 20581
Non-critical_ROB_Stalls_Percent_1_Bucket_4: 28720
Critical_ROB_Stalls_Percent_1_Bucket_5: 10301
Non-critical_ROB_Stalls_Percent_1_Bucket_5: 18153
Critical_ROB_Stalls_Percent_1_Bucket_6: 28754
Non-critical_ROB_Stalls_Percent_1_Bucket_6: 30795
Critical_ROB_Stalls_Percent_2_Bucket_0: 740039
Non-critical_ROB_Stalls_Percent_2_Bucket_0: 594799
Critical_ROB_Stalls_Percent_2_Bucket_1: 515074
Non-critical_ROB_Stalls_Percent_2_Bucket_1: 237039
Critical_ROB_Stalls_Percent_2_Bucket_2: 185866
Non-critical_ROB_Stalls_Percent_2_Bucket_2: 95094
Critical_ROB_Stalls_Percent_2_Bucket_3: 50195
Non-critical_ROB_Stalls_Percent_2_Bucket_3: 46969
Critical_ROB_Stalls_Percent_2_Bucket_4: 24335
Non-critical_ROB_Stalls_Percent_2_Bucket_4: 24966
Critical_ROB_Stalls_Percent_2_Bucket_5: 13488
Non-critical_ROB_Stalls_Percent_2_Bucket_5: 14966
Critical_ROB_Stalls_Percent_2_Bucket_6: 32617
Non-critical_ROB_Stalls_Percent_2_Bucket_6: 26932
Critical_ROB_Stalls_Percent_3_Bucket_0: 804924
Non-critical_ROB_Stalls_Percent_3_Bucket_0: 529914
Critical_ROB_Stalls_Percent_3_Bucket_1: 556119
Non-critical_ROB_Stalls_Percent_3_Bucket_1: 195994
Critical_ROB_Stalls_Percent_3_Bucket_2: 197065
Non-critical_ROB_Stalls_Percent_3_Bucket_2: 83895
Critical_ROB_Stalls_Percent_3_Bucket_3: 54855
Non-critical_ROB_Stalls_Percent_3_Bucket_3: 42309
Critical_ROB_Stalls_Percent_3_Bucket_4: 27115
Non-critical_ROB_Stalls_Percent_3_Bucket_4: 22186
Critical_ROB_Stalls_Percent_3_Bucket_5: 16097
Non-critical_ROB_Stalls_Percent_3_Bucket_5: 12357
Critical_ROB_Stalls_Percent_3_Bucket_6: 35684
Non-critical_ROB_Stalls_Percent_3_Bucket_6: 23865
Critical_ROB_Stalls_Percent_4_Bucket_0: 876902
Non-critical_ROB_Stalls_Percent_4_Bucket_0: 457936
Critical_ROB_Stalls_Percent_4_Bucket_1: 586367
Non-critical_ROB_Stalls_Percent_4_Bucket_1: 165746
Critical_ROB_Stalls_Percent_4_Bucket_2: 208690
Non-critical_ROB_Stalls_Percent_4_Bucket_2: 72270
Critical_ROB_Stalls_Percent_4_Bucket_3: 61236
Non-critical_ROB_Stalls_Percent_4_Bucket_3: 35928
Critical_ROB_Stalls_Percent_4_Bucket_4: 30603
Non-critical_ROB_Stalls_Percent_4_Bucket_4: 18698
Critical_ROB_Stalls_Percent_4_Bucket_5: 18747
Non-critical_ROB_Stalls_Percent_4_Bucket_5: 9707
Critical_ROB_Stalls_Percent_4_Bucket_6: 39324
Non-critical_ROB_Stalls_Percent_4_Bucket_6: 20225
Critical_ROB_Stalls_Percent_5_Bucket_0: 947611
Non-critical_ROB_Stalls_Percent_5_Bucket_0: 387227
Critical_ROB_Stalls_Percent_5_Bucket_1: 620102
Non-critical_ROB_Stalls_Percent_5_Bucket_1: 132011
Critical_ROB_Stalls_Percent_5_Bucket_2: 221186
Non-critical_ROB_Stalls_Percent_5_Bucket_2: 59774
Critical_ROB_Stalls_Percent_5_Bucket_3: 66488
Non-critical_ROB_Stalls_Percent_5_Bucket_3: 30676
Critical_ROB_Stalls_Percent_5_Bucket_4: 34246
Non-critical_ROB_Stalls_Percent_5_Bucket_4: 15055
Critical_ROB_Stalls_Percent_5_Bucket_5: 20349
Non-critical_ROB_Stalls_Percent_5_Bucket_5: 8105
Critical_ROB_Stalls_Percent_5_Bucket_6: 41943
Non-critical_ROB_Stalls_Percent_5_Bucket_6: 17606
Critical_ROB_Stalls_Percent_6_Bucket_0: 1022372
Non-critical_ROB_Stalls_Percent_6_Bucket_0: 312466
Critical_ROB_Stalls_Percent_6_Bucket_1: 652467
Non-critical_ROB_Stalls_Percent_6_Bucket_1: 99646
Critical_ROB_Stalls_Percent_6_Bucket_2: 232877
Non-critical_ROB_Stalls_Percent_6_Bucket_2: 48083
Critical_ROB_Stalls_Percent_6_Bucket_3: 72057
Non-critical_ROB_Stalls_Percent_6_Bucket_3: 25107
Critical_ROB_Stalls_Percent_6_Bucket_4: 37456
Non-critical_ROB_Stalls_Percent_6_Bucket_4: 11845
Critical_ROB_Stalls_Percent_6_Bucket_5: 21524
Non-critical_ROB_Stalls_Percent_6_Bucket_5: 6930
Critical_ROB_Stalls_Percent_6_Bucket_6: 43205
Non-critical_ROB_Stalls_Percent_6_Bucket_6: 16344
Critical_ROB_Stalls_Percent_7_Bucket_0: 1094916
Non-critical_ROB_Stalls_Percent_7_Bucket_0: 239922
Critical_ROB_Stalls_Percent_7_Bucket_1: 679502
Non-critical_ROB_Stalls_Percent_7_Bucket_1: 72611
Critical_ROB_Stalls_Percent_7_Bucket_2: 244186
Non-critical_ROB_Stalls_Percent_7_Bucket_2: 36774
Critical_ROB_Stalls_Percent_7_Bucket_3: 77894
Non-critical_ROB_Stalls_Percent_7_Bucket_3: 19270
Critical_ROB_Stalls_Percent_7_Bucket_4: 40960
Non-critical_ROB_Stalls_Percent_7_Bucket_4: 8341
Critical_ROB_Stalls_Percent_7_Bucket_5: 23697
Non-critical_ROB_Stalls_Percent_7_Bucket_5: 4757
Critical_ROB_Stalls_Percent_7_Bucket_6: 50943
Non-critical_ROB_Stalls_Percent_7_Bucket_6: 8606
Critical_ROB_Stalls_Percent_8_Bucket_0: 1175066
Non-critical_ROB_Stalls_Percent_8_Bucket_0: 159772
Critical_ROB_Stalls_Percent_8_Bucket_1: 704526
Non-critical_ROB_Stalls_Percent_8_Bucket_1: 47587
Critical_ROB_Stalls_Percent_8_Bucket_2: 255519
Non-critical_ROB_Stalls_Percent_8_Bucket_2: 25441
Critical_ROB_Stalls_Percent_8_Bucket_3: 83967
Non-critical_ROB_Stalls_Percent_8_Bucket_3: 13197
Critical_ROB_Stalls_Percent_8_Bucket_4: 43527
Non-critical_ROB_Stalls_Percent_8_Bucket_4: 5774
Critical_ROB_Stalls_Percent_8_Bucket_5: 25248
Non-critical_ROB_Stalls_Percent_8_Bucket_5: 3206
Critical_ROB_Stalls_Percent_8_Bucket_6: 54313
Non-critical_ROB_Stalls_Percent_8_Bucket_6: 5236
Average ROB occupancy Load Stall Begin: 57.2841
Average ROB occupancy Load Stall End: 69.1688
Min ROB occupancy Load Stall Begin: 1
Max ROB occupancy Load Stall Begin: 352
Min ROB occupancy Load Stall End: 1
Max ROB occupancy Load Stall End: 352
Average ROB occupancy Critical Load Stall Begin: -nan
Average ROB occupancy Critical Load Stall End: -nan
Min ROB occupancy Critical Load Stall Begin: 400
Max ROB occupancy Critical Load Stall Begin: 0
Min ROB occupancy Critical Load Stall End: 400
Max ROB occupancy Critical Load Stall End: 0
 ROB Load Stall Begin Bucket Count 0: 1629976
 ROB Load Stall End Bucket Count 0: 1334838
 ROB Critical Load Stall Begin Bucket Count 0: 0
 ROB Critical Load Stall End Bucket Count 0: 0
 ROB Load Stall Begin Bucket Count 1: 571987
 ROB Load Stall End Bucket Count 1: 752113
 ROB Critical Load Stall Begin Bucket Count 1: 0
 ROB Critical Load Stall End Bucket Count 1: 0
 ROB Load Stall Begin Bucket Count 2: 214890
 ROB Load Stall End Bucket Count 2: 280960
 ROB Critical Load Stall Begin Bucket Count 2: 0
 ROB Critical Load Stall End Bucket Count 2: 0
 ROB Load Stall Begin Bucket Count 3: 71851
 ROB Load Stall End Bucket Count 3: 97164
 ROB Critical Load Stall Begin Bucket Count 3: 0
 ROB Critical Load Stall End Bucket Count 3: 0
 ROB Load Stall Begin Bucket Count 4: 38437
 ROB Load Stall End Bucket Count 4: 49301
 ROB Critical Load Stall Begin Bucket Count 4: 0
 ROB Critical Load Stall End Bucket Count 4: 0
 ROB Load Stall Begin Bucket Count 5: 23973
 ROB Load Stall End Bucket Count 5: 28454
 ROB Critical Load Stall Begin Bucket Count 5: 0
 ROB Critical Load Stall End Bucket Count 5: 0
 ROB Load Stall Begin Bucket Count 6: 51265
 ROB Load Stall End Bucket Count 6: 59549
 ROB Critical Load Stall Begin Bucket Count 6: 0
 ROB Critical Load Stall End Bucket Count 6: 0
PIST Tag Read Accesses: 2445032
PIST Read Accesses: 1222516
PIST Tag Write Accesses: 2445032
PIST Write Accesses: 1222516
Criticality detector called times: 2566261
Max global_stall_cycles_count: 3031963
Threshold Modified: 0 times, factor: 0
Sturdy critical IP cache stats: 
 Unused entries: 0
CIC Tag Read Accesses: 0
CIC Read Accesses: 0
CIC Tag Write Accesses: 0
CIC Write Accesses: 0
Wobbly critical IP cache stats: 
 Unused entries: 124
CIC Tag Read Accesses: 133296582
CIC Read Accesses: 0
CIC Tag Write Accesses: 4
CIC Write Accesses: 0
ITLB TOTAL     ACCESS:    8975014  HIT:    8719613  MISS:     255401  HIT %:    97.1543  MISS %:    2.84569   MPKI: 5.10802
ITLB LOAD TRANSLATION ACCESS:    7641706  HIT:    7564850  MISS:      76856  HIT %:    98.9943  MISS %:    1.00574   MPKI: 1.53712
ITLB TRANSLATION FROM L1D PREFETCHER ACCESS:    1333308  HIT:    1154763  MISS:     178545  HIT %:    86.6089  MISS %:    13.3911   MPKI: 3.5709
ITLB PREFETCH  REQUESTED:          0  ISSUED:          0  USEFUL:     142482  USELESS:      36078
ITLB USEFUL LOAD PREFETCHES:     142482 PREFETCH ISSUED TO LOWER LEVEL:          0  ACCURACY: inf
ITLB TIMELY PREFETCHES:     142482 LATE PREFETCHES: 916 DROPPED PREFETCHES: 7400
ITLB PREFETCHES SAME FILL-ORIGIN LEVEL: 0 DIFFERENT FILL-ORIGIN LEVEL: 0
ITLB AVERAGE MISS LATENCY: 184941 cycles
ITLB RQ	ACCESS:   12532706	FORWARD:          0	MERGED:    3515991	TO_CACHE:    9016715

DTLB TOTAL     ACCESS:    9350855  HIT:    8694826  MISS:     656029  HIT %:    92.9843  MISS %:    7.01571   MPKI: 13.1206
DTLB LOAD TRANSLATION ACCESS:    9350855  HIT:    8694826  MISS:     656029  HIT %:    92.9843  MISS %:    7.01571   MPKI: 13.1206
DTLB PREFETCH  REQUESTED:          0  ISSUED:          0  USEFUL:          0  USELESS:          0
DTLB USEFUL LOAD PREFETCHES:          0 PREFETCH ISSUED TO LOWER LEVEL:          0  ACCURACY: -nan
DTLB TIMELY PREFETCHES:          0 LATE PREFETCHES: 0 DROPPED PREFETCHES: 0
DTLB PREFETCHES SAME FILL-ORIGIN LEVEL: 0 DIFFERENT FILL-ORIGIN LEVEL: 0
DTLB AVERAGE MISS LATENCY: 15.3479 cycles
DTLB RQ	ACCESS:   11867362	FORWARD:          0	MERGED:    2474418	TO_CACHE:    9392944

STLB TOTAL     ACCESS:     914467  HIT:     788431  MISS:     126036  HIT %:    86.2175  MISS %:    13.7825   MPKI: 2.52072
STLB LOAD TRANSLATION ACCESS:     731969  HIT:     635956  MISS:      96013  HIT %:    86.8829  MISS %:    13.1171   MPKI: 1.92026
STLB TRANSLATION FROM L1D PREFETCHER ACCESS:     182498  HIT:     152475  MISS:      30023  HIT %:    83.5489  MISS %:    16.4511   MPKI: 0.60046
STLB PREFETCH  REQUESTED:          0  ISSUED:          0  USEFUL:      16158  USELESS:      13870
STLB USEFUL LOAD PREFETCHES:      16158 PREFETCH ISSUED TO LOWER LEVEL:          0  ACCURACY: inf
STLB TIMELY PREFETCHES:      16158 LATE PREFETCHES: 10 DROPPED PREFETCHES: 7400
STLB PREFETCHES SAME FILL-ORIGIN LEVEL: 0 DIFFERENT FILL-ORIGIN LEVEL: 0
STLB AVERAGE MISS LATENCY: 47.6452 cycles
STLB RQ	ACCESS:     925434	FORWARD:          0	MERGED:       3557	TO_CACHE:     921877

STLB Hit, L1D data hit: 0
STLB Hit, L2C data hit: 0
STLB Hit, LLC data hit: 0
STLB Hit, LLC data miss: 0
STLB STLB hints to L2: 0
L1D TOTAL     ACCESS:   11713533  HIT:   11063040  MISS:     650493  HIT %:    94.4467  MISS %:    5.55335   MPKI: 13.0099
L1D LOAD      ACCESS:    6761873  HIT:    6205768  MISS:     556105  HIT %:    91.7759  MISS %:    8.22413   MPKI: 11.1221
L1D RFO       ACCESS:    4945078  HIT:    4856373  MISS:      88705  HIT %:    98.2062  MISS %:     1.7938   MPKI: 1.7741
L1D PREFETCH  ACCESS:       6582  HIT:        899  MISS:       5683  HIT %:    13.6585  MISS %:    86.3415   MPKI: 0.11366
L1D PREFETCH  REQUESTED:      13208  ISSUED:      13208  USEFUL:       2843  USELESS:       2840
L1D USEFUL LOAD PREFETCHES:       2843 PREFETCH ISSUED TO LOWER LEVEL:       5705  ACCURACY: 49.8335
L1D TIMELY PREFETCHES:       2843 LATE PREFETCHES: 22 DROPPED PREFETCHES: 0
L1D PREFETCHES SAME FILL-ORIGIN LEVEL: 5705 DIFFERENT FILL-ORIGIN LEVEL: 0
L1D AVERAGE MISS LATENCY: 1854.87 cycles
L1D RQ	ACCESS:   10424381	FORWARD:          0	MERGED:    3534533	TO_CACHE:    6803249
L1D WQ	ACCESS:    5191026	FORWARD:      86599	MERGED:     126913	TO_CACHE:    5064113
L1D PQ	ACCESS:       6604	FORWARD:          0	MERGED:          0	TO_CACHE:       6604

L1D UNIQUE REGIONS ACCESSED: 0
L1D REGIONS CONFLICTS: 0
L1D Cross Page Prefetch Requests: 0
L1D Same Page Prefetch Requests: 6604
L1D ROI Sum of L1D PQ occupancy: 91366
L1D PREFETCHES PUSHED FROM L2C: 0
L1I TOTAL     ACCESS:   12360452  HIT:   10250810  MISS:    2109642  HIT %:    82.9323  MISS %:    17.0677   MPKI: 42.1928
L1I LOAD      ACCESS:    9390873  HIT:    9111439  MISS:     279434  HIT %:    97.0244  MISS %:    2.97559   MPKI: 5.58868
L1I PREFETCH  ACCESS:    2969579  HIT:    1139371  MISS:    1830208  HIT %:    38.3681  MISS %:    61.6319   MPKI: 36.6042
L1I PREFETCH  REQUESTED:    3210270  ISSUED:    3202183  USEFUL:    1215146  USELESS:     615106
L1I USEFUL LOAD PREFETCHES:    1215146 PREFETCH ISSUED TO LOWER LEVEL:    1867220  ACCURACY: 65.0778
L1I TIMELY PREFETCHES:    1215146 LATE PREFETCHES: 37012 DROPPED PREFETCHES: 24826
L1I PREFETCHES SAME FILL-ORIGIN LEVEL: 1867220 DIFFERENT FILL-ORIGIN LEVEL: 0
L1I AVERAGE MISS LATENCY: 868760 cycles
L1I RQ	ACCESS:   13658162	FORWARD:          0	MERGED:    4238240	TO_CACHE:    9419922
L1I PQ	ACCESS:    3202183	FORWARD:          0	MERGED:      89399	TO_CACHE:    3112784

BTB TOTAL     ACCESS:    4435962  HIT:    3610048  MISS:     825914  HIT %:    81.3814  MISS %:    18.6186   MPKI: 16.5183
BTB BRANCH_DIRECT_JUMP	ACCESS:     463697  HIT:     397748  MISS:      65949
BTB BRANCH_INDIRECT	ACCESS:     146542  HIT:     112914  MISS:      33628
BTB BRANCH_CONDITIONAL	ACCESS:    2131259  HIT:    1856340  MISS:     274919
BTB BRANCH_DIRECT_CALL	ACCESS:     665004  HIT:     539799  MISS:     125205
BTB BRANCH_INDIRECT_CALL	ACCESS:     165150  HIT:     152297  MISS:      12853
BTB BRANCH_RETURN	ACCESS:     864310  HIT:     550950  MISS:     313360
BTB BRANCH_OTHER ACCESS:          0  HIT:          0  MISS:          0

L2C TOTAL     ACCESS:    3336546  HIT:    2028278  MISS:    1308268  HIT %:    60.7898  MISS %:    39.2102   MPKI: 26.1654
L2C LOAD      ACCESS:     798477  HIT:     368262  MISS:     430215  HIT %:    46.1206  MISS %:    53.8794   MPKI: 8.6043
L2C DATA LOAD MPKI: 6.6753
L2C INSTRUCTION LOAD MPKI: 1.929
L2C RFO       ACCESS:      88697  HIT:      41073  MISS:      47624  HIT %:    46.3071  MISS %:    53.6929   MPKI: 0.95248
L2C PREFETCH  ACCESS:    2020198  HIT:    1281826  MISS:     738372  HIT %:    63.4505  MISS %:    36.5495   MPKI: 14.7674
L2C DATA PREFETCH MPKI: 1.15154
L2C INSTRUCTION PREFETCH MPKI: 13.6159
L2C WRITEBACK ACCESS:     256289  HIT:     231956  MISS:      24333  HIT %:    90.5056  MISS %:    9.49436   MPKI: 0.48666
L2C LOAD TRANSLATION ACCESS:     126335  HIT:      71246  MISS:      55089  HIT %:    56.3945  MISS %:    43.6055   MPKI: 1.10178
L2C TRANSLATION FROM L1D PREFETCHER ACCESS:      46550  HIT:      33915  MISS:      12635  HIT %:    72.8571  MISS %:    27.1429   MPKI: 0.2527
L2C PREFETCH  REQUESTED:     454761  ISSUED:     454761  USEFUL:      22748  USELESS:     728851
L2C USEFUL LOAD PREFETCHES:      22748 PREFETCH ISSUED TO LOWER LEVEL:     738461  ACCURACY: 3.08046
L2C TIMELY PREFETCHES:      22748 LATE PREFETCHES: 89 DROPPED PREFETCHES: 0
L2C PREFETCHES SAME FILL-ORIGIN LEVEL: 59339 DIFFERENT FILL-ORIGIN LEVEL: 0
L2C AVERAGE MISS LATENCY: 39.4326 cycles
L2C RQ	ACCESS:    1060095	FORWARD:          0	MERGED:          0	TO_CACHE:    1060059
L2C WQ	ACCESS:     256289	FORWARD:         36	MERGED:          0	TO_CACHE:     256289
L2C PQ	ACCESS:    2327686	FORWARD:          0	MERGED:     300216	TO_CACHE:    2027470

L2C Instructions Evicting Data 275251
L2C Translations Evicting Data 24142
L2C Data Evicting Data 155342
L2C Instructions Evicting Instructions 460656
L2C Translations Evicting Instructions 40830
L2C Data Evicting Instructions 261343
L2C Instructions Evicting Translations 41338
L2C Translations Evicting Translations 2752
L2C Data Evicting Translations 22281
L2C Dense regions hint from L2: 0
PSCL5 TOTAL     ACCESS:     133436  HIT:     133436  MISS:          0  HIT %:        100  MISS %:          0   MPKI: 0
PSCL5 LOAD TRANSLATION ACCESS:      96003  HIT:      96003  MISS:          0  HIT %:        100  MISS %:          0   MPKI: 0
PSCL5 TRANSLATION FROM L1D PREFETCHER ACCESS:      37433  HIT:      37433  MISS:          0  HIT %:        100  MISS %:          0   MPKI: 0
PSCL5 PREFETCH  REQUESTED:          0  ISSUED:          0  USEFUL:          0  USELESS:          0
PSCL5 USEFUL LOAD PREFETCHES:          0 PREFETCH ISSUED TO LOWER LEVEL:          0  ACCURACY: -nan
PSCL5 TIMELY PREFETCHES:          0 LATE PREFETCHES: 0 DROPPED PREFETCHES: 0
PSCL5 PREFETCHES SAME FILL-ORIGIN LEVEL: 0 DIFFERENT FILL-ORIGIN LEVEL: 0

PSCL4 TOTAL     ACCESS:     125370  HIT:     125038  MISS:        332  HIT %:    99.7352  MISS %:   0.264816   MPKI: 0.00664
PSCL4 LOAD TRANSLATION ACCESS:      90003  HIT:      89671  MISS:        332  HIT %:    99.6311  MISS %:   0.368877   MPKI: 0.00664
PSCL4 TRANSLATION FROM L1D PREFETCHER ACCESS:      35367  HIT:      35367  MISS:          0  HIT %:        100  MISS %:          0   MPKI: 0
PSCL4 PREFETCH  REQUESTED:          0  ISSUED:          0  USEFUL:          0  USELESS:          0
PSCL4 USEFUL LOAD PREFETCHES:          0 PREFETCH ISSUED TO LOWER LEVEL:          0  ACCURACY: -nan
PSCL4 TIMELY PREFETCHES:          0 LATE PREFETCHES: 0 DROPPED PREFETCHES: 0
PSCL4 PREFETCHES SAME FILL-ORIGIN LEVEL: 0 DIFFERENT FILL-ORIGIN LEVEL: 0

PSCL3 TOTAL     ACCESS:     131670  HIT:     130633  MISS:       1037  HIT %:    99.2124  MISS %:   0.787575   MPKI: 0.02074
PSCL3 LOAD TRANSLATION ACCESS:      95698  HIT:      94661  MISS:       1037  HIT %:    98.9164  MISS %:    1.08362   MPKI: 0.02074
PSCL3 TRANSLATION FROM L1D PREFETCHER ACCESS:      35972  HIT:      35972  MISS:          0  HIT %:        100  MISS %:          0   MPKI: 0
PSCL3 PREFETCH  REQUESTED:          0  ISSUED:          0  USEFUL:          0  USELESS:          0
PSCL3 USEFUL LOAD PREFETCHES:          0 PREFETCH ISSUED TO LOWER LEVEL:          0  ACCURACY: -nan
PSCL3 TIMELY PREFETCHES:          0 LATE PREFETCHES: 0 DROPPED PREFETCHES: 0
PSCL3 PREFETCHES SAME FILL-ORIGIN LEVEL: 0 DIFFERENT FILL-ORIGIN LEVEL: 0

PSCL2 TOTAL     ACCESS:     129350  HIT:      96134  MISS:      33216  HIT %:    74.3208  MISS %:    25.6792   MPKI: 0.66432
PSCL2 LOAD TRANSLATION ACCESS:      99915  HIT:      66699  MISS:      33216  HIT %:    66.7557  MISS %:    33.2443   MPKI: 0.66432
PSCL2 TRANSLATION FROM L1D PREFETCHER ACCESS:      29435  HIT:      29435  MISS:          0  HIT %:        100  MISS %:          0   MPKI: 0
PSCL2 PREFETCH  REQUESTED:          0  ISSUED:          0  USEFUL:          0  USELESS:          0
PSCL2 USEFUL LOAD PREFETCHES:          0 PREFETCH ISSUED TO LOWER LEVEL:          0  ACCURACY: -nan
PSCL2 TIMELY PREFETCHES:          0 LATE PREFETCHES: 0 DROPPED PREFETCHES: 0
PSCL2 PREFETCHES SAME FILL-ORIGIN LEVEL: 0 DIFFERENT FILL-ORIGIN LEVEL: 0

LLC TOTAL     ACCESS:    1417865  HIT:    1335048  MISS:      82817  HIT %:     94.159  MISS %:    5.84097   MPKI: 1.65634
LLC LOAD      ACCESS:     430126  HIT:     370518  MISS:      59608  HIT %:    86.1417  MISS %:    13.8583   MPKI: 1.19216
LLC RFO       ACCESS:      47624  HIT:      34740  MISS:      12884  HIT %:    72.9464  MISS %:    27.0536   MPKI: 0.25768
LLC PREFETCH  ACCESS:     738461  HIT:     730386  MISS:       8075  HIT %:    98.9065  MISS %:    1.09349   MPKI: 0.1615
LLC WRITEBACK ACCESS:     133930  HIT:     133269  MISS:        661  HIT %:    99.5065  MISS %:   0.493541   MPKI: 0.01322
LLC LOAD TRANSLATION ACCESS:      55089  HIT:      53576  MISS:       1513  HIT %:    97.2535  MISS %:    2.74646   MPKI: 0.03026
LLC TRANSLATION FROM L1D PREFETCHER ACCESS:      12635  HIT:      12559  MISS:         76  HIT %:    99.3985  MISS %:   0.601504   MPKI: 0.00152
LLC PREFETCH  REQUESTED:          0  ISSUED:          0  USEFUL:        478  USELESS:       7316
LLC USEFUL LOAD PREFETCHES:        478 PREFETCH ISSUED TO LOWER LEVEL:       8075  ACCURACY: 5.9195
LLC TIMELY PREFETCHES:        478 LATE PREFETCHES: 0 DROPPED PREFETCHES: 0
LLC PREFETCHES SAME FILL-ORIGIN LEVEL: 0 DIFFERENT FILL-ORIGIN LEVEL: 0
LLC AVERAGE MISS LATENCY: 156.872 cycles
LLC RQ	ACCESS:     545474	FORWARD:          0	MERGED:          0	TO_CACHE:     545474
LLC WQ	ACCESS:     133930	FORWARD:          0	MERGED:          0	TO_CACHE:     133930
LLC PQ	ACCESS:     738461	FORWARD:          0	MERGED:          0	TO_CACHE:     738461

LLC Dense regions hint to LLC: 0

RAW hits: 1034481
Loads Generated: 11458862
Loads sent to L1D: 10424381
Stores Generated: 5191012
Stores sent to L1D: 5191026
Major fault: 0 Minor fault: 6553
Allocated PAGES: 6553
I-Shadow cache 408 bytes
Touched + WorthPF tables 6144 bytes 
MMA filter 174 bytes 
FNL filter 272 bytes 
TOTAL PREFETCHER STORAGE SIZE: 25174 bytes
CPU 0 L1I next line prefetcher final stats

stream: 
stream:times selected: 3400
stream:pref_filled: 5471
stream:pref_useful: 2773
stream:pref_late: 21
stream:misses: 39
stream:misses_by_poll: 0

CS: 
CS:times selected: 2320
CS:pref_filled: 17
CS:pref_useful: 15
CS:pref_late: 0
CS:misses: 24
CS:misses_by_poll: 0

CPLX: 
CPLX:times selected: 954
CPLX:pref_filled: 195
CPLX:pref_useful: 55
CPLX:pref_late: 1
CPLX:misses: 107
CPLX:misses_by_poll: 0

NL_L1: 
NL:times selected: 0
NL:pref_filled: 0
NL:pref_useful: 0
NL:pref_late: 0
NL:misses: 0
NL:misses_by_poll: 0

total selections: 6674
total_filled: 5683
total_useful: 2843
total_late: 22
total_polluted: 0
total_misses_after_warmup: 174
conflicts: 4
Degree Incremented Times: 0
Degree Decremented Times: 0

L1 IP Table Write Accesses: 38536
L1 IP Table Read Accesses: 38532
L1 RST Write Accesses: 3402
L1 RST Read Accesses: 6795
L1 CSPT Write Accesses: 3402
L1 CSPT Read Accesses: 5773
L1 RR Filter Tag Write Accesses: 6604
L1 RR Filter Tag Read Accesses: 792738
L1 IP Table Tag Write Accesses: 38536
L1 IP Table Tag Read Accesses: 38536
L1 RST Tag Write Accesses: 56
L1 RST Tag Read Accesses: 47479
L1 RR Filter Write Accesses: 0
L1 RR Filter Read Accesses: 27192
test: 620
L2 IP Table Read Accesses: 465725
L2 IP Table Write Accesses: 928010
L2 IP Table Tag Read Accesses: 464378
L2 IP Table Tag Write Accesses: 464378

DRAM Statistics
 CHANNEL 0
 RQ ROW_BUFFER_HIT:      12068  ROW_BUFFER_MISS:      70087
 DBUS_CONGESTED:         44
 WQ ROW_BUFFER_HIT:      11327  ROW_BUFFER_MISS:      47450  FULL:          0

 AVG_CONGESTED_CYCLE: 4
 All warmup complete: 2
Channel 0 Bank busy for read cycles: 0
Channel 0 Bank busy for write cycles: 0
Channel 0
Rank 0
0banks busy for read cycles: 57886999
0banks busy for write cycles: 26906
1banks busy for read cycles: 6533741
1banks busy for write cycles: 3722459
2banks busy for read cycles: 1353839
2banks busy for write cycles: 1188730
3banks busy for read cycles: 273608
3banks busy for write cycles: 438956
4banks busy for read cycles: 95255
4banks busy for write cycles: 212388
5banks busy for read cycles: 43942
5banks busy for write cycles: 134548
6banks busy for read cycles: 40955
6banks busy for write cycles: 100435
7banks busy for read cycles: 17889
7banks busy for write cycles: 89266
8banks busy for read cycles: 10382
8banks busy for write cycles: 109320

CPU 0 Branch Prediction Accuracy: 99.4114% MPKI: 1.0933 Average ROB Occupancy at Mispredict: 61.4935
Branch types
NOT_BRANCH: 40713123 81.4262%
BRANCH_DIRECT_JUMP: 463697 0.927394%
BRANCH_INDIRECT: 146542 0.293084%
BRANCH_CONDITIONAL: 6981935 13.9639%
BRANCH_DIRECT_CALL: 665004 1.33001%
BRANCH_INDIRECT_CALL: 165150 0.3303%
BRANCH_RETURN: 864310 1.72862%
BRANCH_OTHER: 0 0%

DRAM PAGES: 1048576
Allocated PAGES: 6553
