
*** ChampSim Multicore Out-of-Order Simulator ***

Warmup Instructions: 50000000
Simulation Instructions: 50000000
Number of CPUs: 1
LLC sets: 2048
LLC ways: 16
Off-chip DRAM Size: 4096 MB Channels: 1 Width: 64-bit Data Rate: 6400 MT/s
CPU 0 runs ../IPC-traces//server_031.champsimtrace.xz
.xz
NUM_OF_IPS_IN_CRITICAL_IP_TRAINING: 64
NUM_OF_CRITICAL_IP_TRAINING_TABLE_WAYS: 2
NUM_OF_CRITICAL_IP_TRAINING_TABLE_SETS: 32
WOBBLY_CRITICAL_IP_CACHE_SETS: 32
WOBBLY_CRITICAL_IP_CACHE_WAYS: 4
BTB has LRU replacement policy
ITLB has LRU replacement policy
DTLB has LRU replacement policy
STLB has LRU replacement policy
CPU 0 L1I next line prefetcher
L1I has LRU replacement policy
IP Table Entries: 64
L1D has LRU replacement policy
Initialize SRRIP state for L2C
Initialize DRRIP state for LLC
Heartbeat CPU 0 instructions: 10000000 cycles: 2882188 heartbeat IPC: 3.46959 cumulative IPC: 3.46959 (Simulation time: 0 hr 3 min 15 sec) 
Heartbeat CPU 0 instructions: 20000000 cycles: 5760998 heartbeat IPC: 3.47366 cumulative IPC: 3.47162 (Simulation time: 0 hr 6 min 34 sec) 
Heartbeat CPU 0 instructions: 30000002 cycles: 8637699 heartbeat IPC: 3.4762 cumulative IPC: 3.47315 (Simulation time: 0 hr 9 min 54 sec) 
Heartbeat CPU 0 instructions: 40000003 cycles: 11514665 heartbeat IPC: 3.47588 cumulative IPC: 3.47383 (Simulation time: 0 hr 13 min 16 sec) 
Heartbeat CPU 0 instructions: 50000001 cycles: 14394039 heartbeat IPC: 3.47298 cumulative IPC: 3.47366 (Simulation time: 0 hr 16 min 28 sec) 

Warmup complete CPU 0 instructions: 50000001 cycles: 14394039 (Simulation time: 0 hr 16 min 28 sec) 

% increase in all ip prefetch 421.017
% increase in all ip prefetch -2.42273
Heartbeat CPU 0 instructions: 60000002 cycles: 30819033 heartbeat IPC: 0.608828 cumulative IPC: 0.608828 (Simulation time: 0 hr 19 min 34 sec) 
Heartbeat CPU 0 instructions: 70000001 cycles: 47265186 heartbeat IPC: 0.608045 cumulative IPC: 0.608436 (Simulation time: 0 hr 22 min 44 sec) 
*** Reached end of trace for Core: 0 Repeating trace: ../IPC-traces//server_031.champsimtrace.xz
Heartbeat CPU 0 instructions: 80000000 cycles: 63552917 heartbeat IPC: 0.613959 cumulative IPC: 0.610266 (Simulation time: 0 hr 25 min 50 sec) 
Heartbeat CPU 0 instructions: 90000000 cycles: 79866710 heartbeat IPC: 0.612978 cumulative IPC: 0.610942 (Simulation time: 0 hr 28 min 54 sec) 
Heartbeat CPU 0 instructions: 100000000 cycles: 96102943 heartbeat IPC: 0.615906 cumulative IPC: 0.611928 (Simulation time: 0 hr 33 min 21 sec) 
Finished CPU 0 instructions: 50000000 cycles: 81708910 cumulative IPC: 0.611928 (Simulation time: 0 hr 33 min 21 sec) 

ChampSim completed all CPUs

Region of Interest Statistics

CPU 0 cumulative IPC: 0.611928 instructions: 50000000 cycles: 81708910

CPU 0 Average Load ROB stall cycles: 1.96039e+07
CPU 0 Fraction of times ROB stalled by Loads: 35.3998
CPU 0 Percentage of Load stall cycles in Total stall cycles: 2.71582e+08
Issued all: 27906886
Issued LT all: 22049391
rob_not_full_when_issued_lt_all: 21920283
Issued LT one: 17124476
rob_not_full_when_issued_lt_one: 17012662
 Total stall cycles: 69257477
 Total load stall cycles: 188091077632479
CPU 0 NUM of IPS identified critical: 0
CPU 0 Num of Load IPs stalling ROB: 10832
Threshold modification factor: -1
Max PIST entries: 64
Min PIST entries: 0
Avg PIST entries: 32
Trouble in retire width: 0.893681
MaC = Marked as critical.
lt_50_percent_before_Mac: 0
gt_90_percent_before_Mac: 0
gt_75_percent_before_Mac: 0
gt_50_percent_before_Mac: 0
stall_proportion_bin_same_before_after: 0
stall_proportion_bin_lower_before_after: 0
stall_proportion_bin_upper_before_after: 0
average_stall_proportion_before: -nan
average_stall_proportion_after: -nan
Critical IP stalls, total frequency: 0
Non-critical IP stalls, total frequency: 3396456
Total Freq all stalling IPs: 3396456
stat_90_percent_critical_ip_stalls_freq: 3057284
stat_90_percent_non_critical_ip_stalls_freq: 339172
Critical_IP_ROB_Stalls_Bucket_0: 0
Non-critical_IP_ROB_Stalls_Bucket_0: 2344568
Critical_IP_ROB_Stalls_Bucket_1: 0
Non-critical_IP_ROB_Stalls_Bucket_1: 706464
Critical_IP_ROB_Stalls_Bucket_2: 0
Non-critical_IP_ROB_Stalls_Bucket_2: 236006
Critical_IP_ROB_Stalls_Bucket_3: 0
Non-critical_IP_ROB_Stalls_Bucket_3: 68229
Critical_IP_ROB_Stalls_Bucket_4: 0
Non-critical_IP_ROB_Stalls_Bucket_4: 25039
Critical_IP_ROB_Stalls_Bucket_5: 0
Non-critical_IP_ROB_Stalls_Bucket_5: 8421
Critical_IP_ROB_Stalls_Bucket_6: 0
Non-critical_IP_ROB_Stalls_Bucket_6: 7729
0 => IPs accounting for >50 percent of stalls, 1 => 55, 2 => 60, 3 => 65 and so on till 90.
percent50: 50.0225 num IPs:  481
percent55: 55.0013 num IPs: 679
percent60: 60.0209 num IPs: 885
percent65: 65.0186 num IPs: 1096
percent70: 70.0018 num IPs: 1311
percent75: 75.0227 num IPs: 1528
percent80: 80.0058 num IPs: 1747
percent85: 85.0032 num IPs: 1976
percent90: 90.0137 num IPs: 2239
Critical_ROB_Stalls_Percent_0_Bucket_0: 982083
Non-critical_ROB_Stalls_Percent_0_Bucket_0: 1362485
Critical_ROB_Stalls_Percent_0_Bucket_1: 437252
Non-critical_ROB_Stalls_Percent_0_Bucket_1: 269212
Critical_ROB_Stalls_Percent_0_Bucket_2: 181150
Non-critical_ROB_Stalls_Percent_0_Bucket_2: 54856
Critical_ROB_Stalls_Percent_0_Bucket_3: 61589
Non-critical_ROB_Stalls_Percent_0_Bucket_3: 6640
Critical_ROB_Stalls_Percent_0_Bucket_4: 22225
Non-critical_ROB_Stalls_Percent_0_Bucket_4: 2814
Critical_ROB_Stalls_Percent_0_Bucket_5: 7497
Non-critical_ROB_Stalls_Percent_0_Bucket_5: 924
Critical_ROB_Stalls_Percent_0_Bucket_6: 7196
Non-critical_ROB_Stalls_Percent_0_Bucket_6: 533
Critical_ROB_Stalls_Percent_1_Bucket_0: 1109922
Non-critical_ROB_Stalls_Percent_1_Bucket_0: 1234646
Critical_ROB_Stalls_Percent_1_Bucket_1: 469975
Non-critical_ROB_Stalls_Percent_1_Bucket_1: 236489
Critical_ROB_Stalls_Percent_1_Bucket_2: 188458
Non-critical_ROB_Stalls_Percent_1_Bucket_2: 47548
Critical_ROB_Stalls_Percent_1_Bucket_3: 62040
Non-critical_ROB_Stalls_Percent_1_Bucket_3: 6189
Critical_ROB_Stalls_Percent_1_Bucket_4: 23000
Non-critical_ROB_Stalls_Percent_1_Bucket_4: 2039
Critical_ROB_Stalls_Percent_1_Bucket_5: 7503
Non-critical_ROB_Stalls_Percent_1_Bucket_5: 918
Critical_ROB_Stalls_Percent_1_Bucket_6: 7197
Non-critical_ROB_Stalls_Percent_1_Bucket_6: 532
Critical_ROB_Stalls_Percent_2_Bucket_0: 1217703
Non-critical_ROB_Stalls_Percent_2_Bucket_0: 1126865
Critical_ROB_Stalls_Percent_2_Bucket_1: 520409
Non-critical_ROB_Stalls_Percent_2_Bucket_1: 186055
Critical_ROB_Stalls_Percent_2_Bucket_2: 199861
Non-critical_ROB_Stalls_Percent_2_Bucket_2: 36145
Critical_ROB_Stalls_Percent_2_Bucket_3: 62801
Non-critical_ROB_Stalls_Percent_2_Bucket_3: 5428
Critical_ROB_Stalls_Percent_2_Bucket_4: 23106
Non-critical_ROB_Stalls_Percent_2_Bucket_4: 1933
Critical_ROB_Stalls_Percent_2_Bucket_5: 7505
Non-critical_ROB_Stalls_Percent_2_Bucket_5: 916
Critical_ROB_Stalls_Percent_2_Bucket_6: 7198
Non-critical_ROB_Stalls_Percent_2_Bucket_6: 531
Critical_ROB_Stalls_Percent_3_Bucket_0: 1344552
Non-critical_ROB_Stalls_Percent_3_Bucket_0: 1000016
Critical_ROB_Stalls_Percent_3_Bucket_1: 557748
Non-critical_ROB_Stalls_Percent_3_Bucket_1: 148716
Critical_ROB_Stalls_Percent_3_Bucket_2: 205264
Non-critical_ROB_Stalls_Percent_3_Bucket_2: 30742
Critical_ROB_Stalls_Percent_3_Bucket_3: 62913
Non-critical_ROB_Stalls_Percent_3_Bucket_3: 5316
Critical_ROB_Stalls_Percent_3_Bucket_4: 23133
Non-critical_ROB_Stalls_Percent_3_Bucket_4: 1906
Critical_ROB_Stalls_Percent_3_Bucket_5: 7506
Non-critical_ROB_Stalls_Percent_3_Bucket_5: 915
Critical_ROB_Stalls_Percent_3_Bucket_6: 7210
Non-critical_ROB_Stalls_Percent_3_Bucket_6: 519
Critical_ROB_Stalls_Percent_4_Bucket_0: 1491931
Non-critical_ROB_Stalls_Percent_4_Bucket_0: 852637
Critical_ROB_Stalls_Percent_4_Bucket_1: 577853
Non-critical_ROB_Stalls_Percent_4_Bucket_1: 128611
Critical_ROB_Stalls_Percent_4_Bucket_2: 206985
Non-critical_ROB_Stalls_Percent_4_Bucket_2: 29021
Critical_ROB_Stalls_Percent_4_Bucket_3: 62963
Non-critical_ROB_Stalls_Percent_4_Bucket_3: 5266
Critical_ROB_Stalls_Percent_4_Bucket_4: 23133
Non-critical_ROB_Stalls_Percent_4_Bucket_4: 1906
Critical_ROB_Stalls_Percent_4_Bucket_5: 7506
Non-critical_ROB_Stalls_Percent_4_Bucket_5: 915
Critical_ROB_Stalls_Percent_4_Bucket_6: 7210
Non-critical_ROB_Stalls_Percent_4_Bucket_6: 519
Critical_ROB_Stalls_Percent_5_Bucket_0: 1627878
Non-critical_ROB_Stalls_Percent_5_Bucket_0: 716690
Critical_ROB_Stalls_Percent_5_Bucket_1: 603636
Non-critical_ROB_Stalls_Percent_5_Bucket_1: 102828
Critical_ROB_Stalls_Percent_5_Bucket_2: 215184
Non-critical_ROB_Stalls_Percent_5_Bucket_2: 20822
Critical_ROB_Stalls_Percent_5_Bucket_3: 63534
Non-critical_ROB_Stalls_Percent_5_Bucket_3: 4695
Critical_ROB_Stalls_Percent_5_Bucket_4: 23162
Non-critical_ROB_Stalls_Percent_5_Bucket_4: 1877
Critical_ROB_Stalls_Percent_5_Bucket_5: 7512
Non-critical_ROB_Stalls_Percent_5_Bucket_5: 909
Critical_ROB_Stalls_Percent_5_Bucket_6: 7214
Non-critical_ROB_Stalls_Percent_5_Bucket_6: 515
Critical_ROB_Stalls_Percent_6_Bucket_0: 1777352
Non-critical_ROB_Stalls_Percent_6_Bucket_0: 567216
Critical_ROB_Stalls_Percent_6_Bucket_1: 618933
Non-critical_ROB_Stalls_Percent_6_Bucket_1: 87531
Critical_ROB_Stalls_Percent_6_Bucket_2: 219614
Non-critical_ROB_Stalls_Percent_6_Bucket_2: 16392
Critical_ROB_Stalls_Percent_6_Bucket_3: 63566
Non-critical_ROB_Stalls_Percent_6_Bucket_3: 4663
Critical_ROB_Stalls_Percent_6_Bucket_4: 23169
Non-critical_ROB_Stalls_Percent_6_Bucket_4: 1870
Critical_ROB_Stalls_Percent_6_Bucket_5: 7512
Non-critical_ROB_Stalls_Percent_6_Bucket_5: 909
Critical_ROB_Stalls_Percent_6_Bucket_6: 7223
Non-critical_ROB_Stalls_Percent_6_Bucket_6: 506
Critical_ROB_Stalls_Percent_7_Bucket_0: 1925560
Non-critical_ROB_Stalls_Percent_7_Bucket_0: 419008
Critical_ROB_Stalls_Percent_7_Bucket_1: 637928
Non-critical_ROB_Stalls_Percent_7_Bucket_1: 68536
Critical_ROB_Stalls_Percent_7_Bucket_2: 222002
Non-critical_ROB_Stalls_Percent_7_Bucket_2: 14004
Critical_ROB_Stalls_Percent_7_Bucket_3: 63680
Non-critical_ROB_Stalls_Percent_7_Bucket_3: 4549
Critical_ROB_Stalls_Percent_7_Bucket_4: 23196
Non-critical_ROB_Stalls_Percent_7_Bucket_4: 1843
Critical_ROB_Stalls_Percent_7_Bucket_5: 7513
Non-critical_ROB_Stalls_Percent_7_Bucket_5: 908
Critical_ROB_Stalls_Percent_7_Bucket_6: 7223
Non-critical_ROB_Stalls_Percent_7_Bucket_6: 506
Critical_ROB_Stalls_Percent_8_Bucket_0: 2076225
Non-critical_ROB_Stalls_Percent_8_Bucket_0: 268343
Critical_ROB_Stalls_Percent_8_Bucket_1: 651804
Non-critical_ROB_Stalls_Percent_8_Bucket_1: 54660
Critical_ROB_Stalls_Percent_8_Bucket_2: 225004
Non-critical_ROB_Stalls_Percent_8_Bucket_2: 11002
Critical_ROB_Stalls_Percent_8_Bucket_3: 64866
Non-critical_ROB_Stalls_Percent_8_Bucket_3: 3363
Critical_ROB_Stalls_Percent_8_Bucket_4: 23902
Non-critical_ROB_Stalls_Percent_8_Bucket_4: 1137
Critical_ROB_Stalls_Percent_8_Bucket_5: 8131
Non-critical_ROB_Stalls_Percent_8_Bucket_5: 290
Critical_ROB_Stalls_Percent_8_Bucket_6: 7352
Non-critical_ROB_Stalls_Percent_8_Bucket_6: 377
Average ROB occupancy Load Stall Begin: 37.6285
Average ROB occupancy Load Stall End: 46.1762
Min ROB occupancy Load Stall Begin: 1
Max ROB occupancy Load Stall Begin: 352
Min ROB occupancy Load Stall End: 1
Max ROB occupancy Load Stall End: 352
Average ROB occupancy Critical Load Stall Begin: -nan
Average ROB occupancy Critical Load Stall End: -nan
Min ROB occupancy Critical Load Stall Begin: 400
Max ROB occupancy Critical Load Stall Begin: 0
Min ROB occupancy Critical Load Stall End: 400
Max ROB occupancy Critical Load Stall End: 0
 ROB Load Stall Begin Bucket Count 0: 2611445
 ROB Load Stall End Bucket Count 0: 2344568
 ROB Critical Load Stall Begin Bucket Count 0: 0
 ROB Critical Load Stall End Bucket Count 0: 0
 ROB Load Stall Begin Bucket Count 1: 515494
 ROB Load Stall End Bucket Count 1: 706464
 ROB Critical Load Stall Begin Bucket Count 1: 0
 ROB Critical Load Stall End Bucket Count 1: 0
 ROB Load Stall Begin Bucket Count 2: 182532
 ROB Load Stall End Bucket Count 2: 236006
 ROB Critical Load Stall Begin Bucket Count 2: 0
 ROB Critical Load Stall End Bucket Count 2: 0
 ROB Load Stall Begin Bucket Count 3: 54086
 ROB Load Stall End Bucket Count 3: 68229
 ROB Critical Load Stall Begin Bucket Count 3: 0
 ROB Critical Load Stall End Bucket Count 3: 0
 ROB Load Stall Begin Bucket Count 4: 19422
 ROB Load Stall End Bucket Count 4: 25039
 ROB Critical Load Stall Begin Bucket Count 4: 0
 ROB Critical Load Stall End Bucket Count 4: 0
 ROB Load Stall Begin Bucket Count 5: 6613
 ROB Load Stall End Bucket Count 5: 8421
 ROB Critical Load Stall Begin Bucket Count 5: 0
 ROB Critical Load Stall End Bucket Count 5: 0
 ROB Load Stall Begin Bucket Count 6: 6864
 ROB Load Stall End Bucket Count 6: 7729
 ROB Critical Load Stall Begin Bucket Count 6: 0
 ROB Critical Load Stall End Bucket Count 6: 0
PIST Tag Read Accesses: 2468938
PIST Read Accesses: 1234469
PIST Tag Write Accesses: 2468938
PIST Write Accesses: 1234469
Criticality detector called times: 3310952
Max global_stall_cycles_count: 2222404
Threshold Modified: 1 times, factor: -1
Sturdy critical IP cache stats: 
 Unused entries: 0
CIC Tag Read Accesses: 0
CIC Read Accesses: 0
CIC Tag Write Accesses: 0
CIC Write Accesses: 0
Wobbly critical IP cache stats: 
 Unused entries: 123
CIC Tag Read Accesses: 84266034
CIC Read Accesses: 0
CIC Tag Write Accesses: 5
CIC Write Accesses: 0
ITLB TOTAL     ACCESS:   10392888  HIT:    9637695  MISS:     755193  HIT %:    92.7336  MISS %:    7.26644   MPKI: 15.1039
ITLB LOAD TRANSLATION ACCESS:    8206591  HIT:    8152546  MISS:      54045  HIT %:    99.3414  MISS %:   0.658556   MPKI: 1.0809
ITLB TRANSLATION FROM L1D PREFETCHER ACCESS:    2186297  HIT:    1485149  MISS:     701148  HIT %:    67.9299  MISS %:    32.0701   MPKI: 14.023
ITLB PREFETCH  REQUESTED:          0  ISSUED:          0  USEFUL:     574199  USELESS:     126954
ITLB USEFUL LOAD PREFETCHES:     574199 PREFETCH ISSUED TO LOWER LEVEL:          0  ACCURACY: inf
ITLB TIMELY PREFETCHES:     574199 LATE PREFETCHES: 36 DROPPED PREFETCHES: 5592
ITLB PREFETCHES SAME FILL-ORIGIN LEVEL: 0 DIFFERENT FILL-ORIGIN LEVEL: 0
ITLB AVERAGE MISS LATENCY: 2013.46 cycles
ITLB RQ	ACCESS:   15866750	FORWARD:          0	MERGED:    5421916	TO_CACHE:   10444834

DTLB TOTAL     ACCESS:   11402318  HIT:   10844345  MISS:     557973  HIT %:    95.1065  MISS %:     4.8935   MPKI: 11.1595
DTLB LOAD TRANSLATION ACCESS:   11402318  HIT:   10844345  MISS:     557973  HIT %:    95.1065  MISS %:     4.8935   MPKI: 11.1595
DTLB PREFETCH  REQUESTED:          0  ISSUED:          0  USEFUL:          0  USELESS:          0
DTLB USEFUL LOAD PREFETCHES:          0 PREFETCH ISSUED TO LOWER LEVEL:          0  ACCURACY: -nan
DTLB TIMELY PREFETCHES:          0 LATE PREFETCHES: 0 DROPPED PREFETCHES: 0
DTLB PREFETCHES SAME FILL-ORIGIN LEVEL: 0 DIFFERENT FILL-ORIGIN LEVEL: 0
DTLB AVERAGE MISS LATENCY: 10.8959 cycles
DTLB RQ	ACCESS:   14924638	FORWARD:          0	MERGED:    3495337	TO_CACHE:   11429301

STLB TOTAL     ACCESS:    1331748  HIT:    1316135  MISS:      15613  HIT %:    98.8276  MISS %:    1.17237   MPKI: 0.31226
STLB LOAD TRANSLATION ACCESS:     611982  HIT:     598122  MISS:      13860  HIT %:    97.7352  MISS %:    2.26477   MPKI: 0.2772
STLB TRANSLATION FROM L1D PREFETCHER ACCESS:     719766  HIT:     718013  MISS:       1753  HIT %:    99.7564  MISS %:   0.243551   MPKI: 0.03506
STLB PREFETCH  REQUESTED:          0  ISSUED:          0  USEFUL:       1464  USELESS:        279
STLB USEFUL LOAD PREFETCHES:       1464 PREFETCH ISSUED TO LOWER LEVEL:          0  ACCURACY: inf
STLB TIMELY PREFETCHES:       1464 LATE PREFETCHES: 0 DROPPED PREFETCHES: 5592
STLB PREFETCHES SAME FILL-ORIGIN LEVEL: 0 DIFFERENT FILL-ORIGIN LEVEL: 0
STLB AVERAGE MISS LATENCY: 73.0218 cycles
STLB RQ	ACCESS:    1342055	FORWARD:          0	MERGED:       4717	TO_CACHE:    1337338

STLB Hit, L1D data hit: 0
STLB Hit, L2C data hit: 0
STLB Hit, LLC data hit: 0
STLB Hit, LLC data miss: 0
STLB STLB hints to L2: 0
L1D TOTAL     ACCESS:   14412630  HIT:   13159215  MISS:    1253415  HIT %:    91.3034  MISS %:    8.69664   MPKI: 25.0683
L1D LOAD      ACCESS:    7968620  HIT:    7032563  MISS:     936057  HIT %:    88.2532  MISS %:    11.7468   MPKI: 18.7211
L1D RFO       ACCESS:    6424000  HIT:    6119946  MISS:     304054  HIT %:    95.2669  MISS %:    4.73309   MPKI: 6.08108
L1D PREFETCH  ACCESS:      20010  HIT:       6706  MISS:      13304  HIT %:    33.5132  MISS %:    66.4868   MPKI: 0.26608
L1D PREFETCH  REQUESTED:      46604  ISSUED:      46604  USEFUL:       2693  USELESS:      10637
L1D USEFUL LOAD PREFETCHES:       2693 PREFETCH ISSUED TO LOWER LEVEL:      15678  ACCURACY: 17.1769
L1D TIMELY PREFETCHES:       2693 LATE PREFETCHES: 2369 DROPPED PREFETCHES: 0
L1D PREFETCHES SAME FILL-ORIGIN LEVEL: 15678 DIFFERENT FILL-ORIGIN LEVEL: 0
L1D AVERAGE MISS LATENCY: 43730.8 cycles
L1D RQ	ACCESS:   11362243	FORWARD:          0	MERGED:    3200106	TO_CACHE:    8010538
L1D WQ	ACCESS:    6987103	FORWARD:     151605	MERGED:      73003	TO_CACHE:    6914100
L1D PQ	ACCESS:      23305	FORWARD:          0	MERGED:          0	TO_CACHE:      23299

L1D UNIQUE REGIONS ACCESSED: 0
L1D REGIONS CONFLICTS: 0
L1D Cross Page Prefetch Requests: 0
L1D Same Page Prefetch Requests: 362530
L1D ROI Sum of L1D PQ occupancy: 305663
L1D PREFETCHES PUSHED FROM L2C: 0
L1I TOTAL     ACCESS:   15777646  HIT:   11444339  MISS:    4333307  HIT %:    72.5351  MISS %:    27.4649   MPKI: 86.6661
L1I LOAD      ACCESS:    9703185  HIT:    9618516  MISS:      84669  HIT %:    99.1274  MISS %:    0.87259   MPKI: 1.69338
L1I PREFETCH  ACCESS:    6074461  HIT:    1825823  MISS:    4248638  HIT %:    30.0574  MISS %:    69.9426   MPKI: 84.9728
L1I PREFETCH  REQUESTED:    6297495  ISSUED:    6283549  USEFUL:    3040314  USELESS:    1208369
L1I USEFUL LOAD PREFETCHES:    3040314 PREFETCH ISSUED TO LOWER LEVEL:    4262836  ACCURACY: 71.3214
L1I TIMELY PREFETCHES:    3040314 LATE PREFETCHES: 14204 DROPPED PREFETCHES: 12147
L1I PREFETCHES SAME FILL-ORIGIN LEVEL: 4262836 DIFFERENT FILL-ORIGIN LEVEL: 0
L1I AVERAGE MISS LATENCY: 174901 cycles
L1I RQ	ACCESS:   13650888	FORWARD:          0	MERGED:    3935226	TO_CACHE:    9715662
L1I PQ	ACCESS:    6283549	FORWARD:          0	MERGED:     132461	TO_CACHE:    6151088

BTB TOTAL     ACCESS:    6108832  HIT:    4217936  MISS:    1890896  HIT %:    69.0465  MISS %:    30.9535   MPKI: 37.8179
BTB BRANCH_DIRECT_JUMP	ACCESS:     546483  HIT:     394596  MISS:     151887
BTB BRANCH_INDIRECT	ACCESS:     172433  HIT:     135681  MISS:      36752
BTB BRANCH_CONDITIONAL	ACCESS:    2972190  HIT:    2453638  MISS:     518552
BTB BRANCH_DIRECT_CALL	ACCESS:    1018497  HIT:     648526  MISS:     369971
BTB BRANCH_INDIRECT_CALL	ACCESS:     190373  HIT:     119425  MISS:      70948
BTB BRANCH_RETURN	ACCESS:    1208856  HIT:     466070  MISS:     742786
BTB BRANCH_OTHER ACCESS:          0  HIT:          0  MISS:          0

L2C TOTAL     ACCESS:    6197365  HIT:    5811547  MISS:     385818  HIT %:    93.7745  MISS %:    6.22552   MPKI: 7.71636
L2C LOAD      ACCESS:    1004145  HIT:     872902  MISS:     131243  HIT %:    86.9299  MISS %:    13.0701   MPKI: 2.62486
L2C DATA LOAD MPKI: 2.4402
L2C INSTRUCTION LOAD MPKI: 0.18466
L2C RFO       ACCESS:     304048  HIT:     275777  MISS:      28271  HIT %:    90.7018  MISS %:     9.2982   MPKI: 0.56542
L2C PREFETCH  ACCESS:    4278521  HIT:    4077110  MISS:     201411  HIT %:    95.2925  MISS %:    4.70749   MPKI: 4.02822
L2C DATA PREFETCH MPKI: 0.16698
L2C INSTRUCTION PREFETCH MPKI: 3.86124
L2C WRITEBACK ACCESS:     577710  HIT:     564970  MISS:      12740  HIT %:    97.7947  MISS %:    2.20526   MPKI: 0.2548
L2C LOAD TRANSLATION ACCESS:      21132  HIT:       9828  MISS:      11304  HIT %:    46.5077  MISS %:    53.4923   MPKI: 0.22608
L2C TRANSLATION FROM L1D PREFETCHER ACCESS:      11809  HIT:      10960  MISS:        849  HIT %:    92.8106  MISS %:    7.18943   MPKI: 0.01698
L2C PREFETCH  REQUESTED:          0  ISSUED:          0  USEFUL:       2397  USELESS:     200539
L2C USEFUL LOAD PREFETCHES:       2397 PREFETCH ISSUED TO LOWER LEVEL:     201411  ACCURACY: 1.1901
L2C TIMELY PREFETCHES:       2397 LATE PREFETCHES: 0 DROPPED PREFETCHES: 0
L2C PREFETCHES SAME FILL-ORIGIN LEVEL: 0 DIFFERENT FILL-ORIGIN LEVEL: 0
L2C AVERAGE MISS LATENCY: 44.1443 cycles
L2C RQ	ACCESS:    1341142	FORWARD:          0	MERGED:          0	TO_CACHE:    1341134
L2C WQ	ACCESS:     577710	FORWARD:          8	MERGED:          0	TO_CACHE:     577710
L2C PQ	ACCESS:    4278514	FORWARD:          0	MERGED:          0	TO_CACHE:    4278514

L2C Instructions Evicting Data 76147
L2C Translations Evicting Data 7302
L2C Data Evicting Data 83592
L2C Instructions Evicting Instructions 122267
L2C Translations Evicting Instructions 3939
L2C Data Evicting Instructions 67925
L2C Instructions Evicting Translations 3881
L2C Translations Evicting Translations 912
L2C Data Evicting Translations 7113
L2C Dense regions hint from L2: 0
PSCL5 TOTAL     ACCESS:      21205  HIT:      21205  MISS:          0  HIT %:        100  MISS %:          0   MPKI: 0
PSCL5 LOAD TRANSLATION ACCESS:      13860  HIT:      13860  MISS:          0  HIT %:        100  MISS %:          0   MPKI: 0
PSCL5 TRANSLATION FROM L1D PREFETCHER ACCESS:       7345  HIT:       7345  MISS:          0  HIT %:        100  MISS %:          0   MPKI: 0
PSCL5 PREFETCH  REQUESTED:          0  ISSUED:          0  USEFUL:          0  USELESS:          0
PSCL5 USEFUL LOAD PREFETCHES:          0 PREFETCH ISSUED TO LOWER LEVEL:          0  ACCURACY: -nan
PSCL5 TIMELY PREFETCHES:          0 LATE PREFETCHES: 0 DROPPED PREFETCHES: 0
PSCL5 PREFETCHES SAME FILL-ORIGIN LEVEL: 0 DIFFERENT FILL-ORIGIN LEVEL: 0

PSCL4 TOTAL     ACCESS:      19827  HIT:      19626  MISS:        201  HIT %:    98.9862  MISS %:    1.01377   MPKI: 0.00402
PSCL4 LOAD TRANSLATION ACCESS:      12889  HIT:      12688  MISS:        201  HIT %:    98.4405  MISS %:    1.55947   MPKI: 0.00402
PSCL4 TRANSLATION FROM L1D PREFETCHER ACCESS:       6938  HIT:       6938  MISS:          0  HIT %:        100  MISS %:          0   MPKI: 0
PSCL4 PREFETCH  REQUESTED:          0  ISSUED:          0  USEFUL:          0  USELESS:          0
PSCL4 USEFUL LOAD PREFETCHES:          0 PREFETCH ISSUED TO LOWER LEVEL:          0  ACCURACY: -nan
PSCL4 TIMELY PREFETCHES:          0 LATE PREFETCHES: 0 DROPPED PREFETCHES: 0
PSCL4 PREFETCHES SAME FILL-ORIGIN LEVEL: 0 DIFFERENT FILL-ORIGIN LEVEL: 0

PSCL3 TOTAL     ACCESS:      21082  HIT:      20878  MISS:        204  HIT %:    99.0323  MISS %:    0.96765   MPKI: 0.00408
PSCL3 LOAD TRANSLATION ACCESS:      13881  HIT:      13677  MISS:        204  HIT %:    98.5304  MISS %:    1.46963   MPKI: 0.00408
PSCL3 TRANSLATION FROM L1D PREFETCHER ACCESS:       7201  HIT:       7201  MISS:          0  HIT %:        100  MISS %:          0   MPKI: 0
PSCL3 PREFETCH  REQUESTED:          0  ISSUED:          0  USEFUL:          0  USELESS:          0
PSCL3 USEFUL LOAD PREFETCHES:          0 PREFETCH ISSUED TO LOWER LEVEL:          0  ACCURACY: -nan
PSCL3 TIMELY PREFETCHES:          0 LATE PREFETCHES: 0 DROPPED PREFETCHES: 0
PSCL3 PREFETCHES SAME FILL-ORIGIN LEVEL: 0 DIFFERENT FILL-ORIGIN LEVEL: 0

PSCL2 TOTAL     ACCESS:      17743  HIT:      10003  MISS:       7740  HIT %:    56.3772  MISS %:    43.6228   MPKI: 0.1548
PSCL2 LOAD TRANSLATION ACCESS:      14638  HIT:       6898  MISS:       7740  HIT %:    47.1239  MISS %:    52.8761   MPKI: 0.1548
PSCL2 TRANSLATION FROM L1D PREFETCHER ACCESS:       3105  HIT:       3105  MISS:          0  HIT %:        100  MISS %:          0   MPKI: 0
PSCL2 PREFETCH  REQUESTED:          0  ISSUED:          0  USEFUL:          0  USELESS:          0
PSCL2 USEFUL LOAD PREFETCHES:          0 PREFETCH ISSUED TO LOWER LEVEL:          0  ACCURACY: -nan
PSCL2 TIMELY PREFETCHES:          0 LATE PREFETCHES: 0 DROPPED PREFETCHES: 0
PSCL2 PREFETCHES SAME FILL-ORIGIN LEVEL: 0 DIFFERENT FILL-ORIGIN LEVEL: 0

LLC TOTAL     ACCESS:     412257  HIT:     371396  MISS:      40861  HIT %:    90.0885  MISS %:    9.91154   MPKI: 0.81722
LLC LOAD      ACCESS:     131243  HIT:     101814  MISS:      29429  HIT %:    77.5767  MISS %:    22.4233   MPKI: 0.58858
LLC RFO       ACCESS:      28271  HIT:      24086  MISS:       4185  HIT %:    85.1968  MISS %:    14.8032   MPKI: 0.0837
LLC PREFETCH  ACCESS:     201411  HIT:     195768  MISS:       5643  HIT %:    97.1983  MISS %:    2.80173   MPKI: 0.11286
LLC WRITEBACK ACCESS:      39179  HIT:      38874  MISS:        305  HIT %:    99.2215  MISS %:   0.778478   MPKI: 0.0061
LLC LOAD TRANSLATION ACCESS:      11304  HIT:      10020  MISS:       1284  HIT %:    88.6412  MISS %:    11.3588   MPKI: 0.02568
LLC TRANSLATION FROM L1D PREFETCHER ACCESS:        849  HIT:        834  MISS:         15  HIT %:    98.2332  MISS %:    1.76678   MPKI: 0.0003
LLC PREFETCH  REQUESTED:          0  ISSUED:          0  USEFUL:       1066  USELESS:      13758
LLC USEFUL LOAD PREFETCHES:       1066 PREFETCH ISSUED TO LOWER LEVEL:       5643  ACCURACY: 18.8907
LLC TIMELY PREFETCHES:       1066 LATE PREFETCHES: 0 DROPPED PREFETCHES: 0
LLC PREFETCHES SAME FILL-ORIGIN LEVEL: 0 DIFFERENT FILL-ORIGIN LEVEL: 0
LLC AVERAGE MISS LATENCY: 142.223 cycles
LLC RQ	ACCESS:     171667	FORWARD:          0	MERGED:          0	TO_CACHE:     171667
LLC WQ	ACCESS:      39179	FORWARD:          0	MERGED:          0	TO_CACHE:      39179
LLC PQ	ACCESS:     201411	FORWARD:          0	MERGED:          0	TO_CACHE:     201411

LLC Dense regions hint to LLC: 0

RAW hits: 1095164
Loads Generated: 12457407
Loads sent to L1D: 11362243
Stores Generated: 6987099
Stores sent to L1D: 6987103
Major fault: 0 Minor fault: 6261
Allocated PAGES: 6261
I-Shadow cache 408 bytes
Touched + WorthPF tables 6144 bytes 
MMA filter 174 bytes 
FNL filter 272 bytes 
TOTAL PREFETCHER STORAGE SIZE: 25174 bytes
CPU 0 L1I next line prefetcher final stats

stream: 
stream:times selected: 988931
stream:pref_filled: 103172
stream:pref_useful: 28672
stream:pref_late: 6807
stream:misses: 9530
stream:misses_by_poll: 0

CS: 
CS:times selected: 155922
CS:pref_filled: 47027
CS:pref_useful: 34108
CS:pref_late: 2342
CS:misses: 46121
CS:misses_by_poll: 0

CPLX: 
CPLX:times selected: 831248
CPLX:pref_filled: 29726
CPLX:pref_useful: 8530
CPLX:pref_late: 1908
CPLX:misses: 164578
CPLX:misses_by_poll: 3

NL_L1: 
NL:times selected: 3794
NL:pref_filled: 257
NL:pref_useful: 46
NL:pref_late: 30
NL:misses: 183
NL:misses_by_poll: 0

total selections: 1979895
total_filled: 13304
total_useful: 2693
total_late: 12031
total_polluted: 3
total_misses_after_warmup: 977980
conflicts: 3382986
Degree Incremented Times: 0
Degree Decremented Times: 1172580

L1 IP Table Write Accesses: 4428227
L1 IP Table Read Accesses: 1045241
L1 RST Write Accesses: 494076
L1 RST Read Accesses: 988152
L1 CSPT Write Accesses: 494076
L1 CSPT Read Accesses: 901509
L1 RR Filter Tag Write Accesses: 23305
L1 RR Filter Tag Read Accesses: 1788934
L1 IP Table Tag Write Accesses: 8010543
L1 IP Table Tag Read Accesses: 8010543
L1 RST Tag Write Accesses: 0
L1 RST Tag Read Accesses: 5498607
L1 RR Filter Write Accesses: 0
L1 RR Filter Read Accesses: 63743
test: 165433

DRAM Statistics
 CHANNEL 0
 RQ ROW_BUFFER_HIT:      13555  ROW_BUFFER_MISS:      26995
 DBUS_CONGESTED:         17
 WQ ROW_BUFFER_HIT:        999  ROW_BUFFER_MISS:       3167  FULL:          0

 AVG_CONGESTED_CYCLE: 4
 All warmup complete: 2
Channel 0 Bank busy for read cycles: 0
Channel 0 Bank busy for write cycles: 0
Channel 0
Rank 0
0banks busy for read cycles: 77383321
0banks busy for write cycles: 2254
1banks busy for read cycles: 2626877
1banks busy for write cycles: 551215
2banks busy for read cycles: 548149
2banks busy for write cycles: 190851
3banks busy for read cycles: 161928
3banks busy for write cycles: 87025
4banks busy for read cycles: 34878
4banks busy for write cycles: 33695
5banks busy for read cycles: 13820
5banks busy for write cycles: 17786
6banks busy for read cycles: 12774
6banks busy for write cycles: 5172
7banks busy for read cycles: 13203
7banks busy for write cycles: 3287
8banks busy for read cycles: 17956
8banks busy for write cycles: 4720

CPU 0 Branch Prediction Accuracy: 99.6894% MPKI: 0.58048 Average ROB Occupancy at Mispredict: 90.3322
Branch types
NOT_BRANCH: 40655535 81.3111%
BRANCH_DIRECT_JUMP: 546483 1.09297%
BRANCH_INDIRECT: 172433 0.344866%
BRANCH_CONDITIONAL: 6207556 12.4151%
BRANCH_DIRECT_CALL: 1018497 2.03699%
BRANCH_INDIRECT_CALL: 190373 0.380746%
BRANCH_RETURN: 1208856 2.41771%
BRANCH_OTHER: 0 0%

DRAM PAGES: 1048576
Allocated PAGES: 6261
