Initialize SIGNATURE TABLE
ST_SET: 1
ST_WAY: 16
ST_TAG_BIT: 16
ST_TAG_MASK: ffff

Initialize PATTERN TABLE
PT_SET: 16
PT_WAY: 4
SIG_DELTA_BIT: 7
C_SIG_BIT: 4
C_DELTA_BIT: 4

Initialize PREFETCH FILTER
FILTER_SET: 1024

Initialize PERCEPTRON
PERC_ENTRIES: 4096
PERC_FEATURES: 9

*** ChampSim Multicore Out-of-Order Simulator ***

Warmup Instructions: 50000000
Simulation Instructions: 50000000
Number of CPUs: 1
LLC sets: 2048
LLC ways: 16
Off-chip DRAM Size: 4096 MB Channels: 1 Width: 64-bit Data Rate: 6400 MT/s
CPU 0 runs ../IPC-traces//server_001.champsimtrace.xz
.xz
BTB has LRU replacement policy
ITLB has LRU replacement policy
DTLB has LRU replacement policy
STLB has LRU replacement policy
CPU 0 L1I next line prefetcher
L1I has LRU replacement policy
L1D has LRU replacement policy
Initialize SRRIP state for L2C
Initialize DRRIP state for LLC
Heartbeat CPU 0 instructions: 10000003 cycles: 2757831 heartbeat IPC: 3.62604 cumulative IPC: 3.62604 (Simulation time: 0 hr 4 min 13 sec) 
Heartbeat CPU 0 instructions: 20000003 cycles: 5521844 heartbeat IPC: 3.61793 cumulative IPC: 3.62198 (Simulation time: 0 hr 7 min 26 sec) 
Heartbeat CPU 0 instructions: 30000001 cycles: 8279956 heartbeat IPC: 3.62567 cumulative IPC: 3.62321 (Simulation time: 0 hr 10 min 20 sec) 
Heartbeat CPU 0 instructions: 40000001 cycles: 11043194 heartbeat IPC: 3.61894 cumulative IPC: 3.62214 (Simulation time: 0 hr 13 min 46 sec) 
Heartbeat CPU 0 instructions: 50000000 cycles: 13807075 heartbeat IPC: 3.6181 cumulative IPC: 3.62133 (Simulation time: 0 hr 17 min 6 sec) 

Warmup complete CPU 0 instructions: 50000004 cycles: 13807076 (Simulation time: 0 hr 17 min 6 sec) 

Heartbeat CPU 0 instructions: 60000002 cycles: 28169705 heartbeat IPC: 0.696251 cumulative IPC: 0.696251 (Simulation time: 0 hr 20 min 53 sec) 
Heartbeat CPU 0 instructions: 70000001 cycles: 42285153 heartbeat IPC: 0.708444 cumulative IPC: 0.702295 (Simulation time: 0 hr 24 min 34 sec) 
Heartbeat CPU 0 instructions: 80000003 cycles: 56002289 heartbeat IPC: 0.729015 cumulative IPC: 0.710981 (Simulation time: 0 hr 28 min 12 sec) 
Heartbeat CPU 0 instructions: 90000002 cycles: 70538026 heartbeat IPC: 0.68796 cumulative IPC: 0.705082 (Simulation time: 0 hr 31 min 54 sec) 
Heartbeat CPU 0 instructions: 100000003 cycles: 84207358 heartbeat IPC: 0.731565 cumulative IPC: 0.710224 (Simulation time: 0 hr 35 min 7 sec) 
Finished CPU 0 instructions: 50000003 cycles: 70400283 cumulative IPC: 0.710225 (Simulation time: 0 hr 35 min 7 sec) 

ChampSim completed all CPUs

Region of Interest Statistics

CPU 0 cumulative IPC: 0.710225 instructions: 50000003 cycles: 70400283

CPU 0 Average Load ROB stall cycles: 2.11525e+07
CPU 0 Fraction of times ROB stalled by Loads: 43.0319
CPU 0 Percentage of Load stall cycles in Total stall cycles: 1.95566e+08
Issued all: 31150595
Issued LT all: 25029485
rob_not_full_when_issued_lt_all: 18596365
Issued LT one: 20910633
rob_not_full_when_issued_lt_one: 15216758
 Total stall cycles: 57581559
 Total load stall cycles: 112609996277820
Unique Load IPs: 23928
CPU 0 NUM of IPS identified critical: 8
CPU 0 Num of Load IPs stalling ROB: 0
Threshold modification factor: 0
Trouble in retire width: -nan
MaC = Marked as critical.
lt_50_percent_before_Mac: 1
gt_90_percent_before_Mac: 2
gt_75_percent_before_Mac: 2
gt_50_percent_before_Mac: 2
stall_proportion_bin_same_before_after: 0
stall_proportion_bin_lower_before_after: 0
stall_proportion_bin_upper_before_after: 0
average_stall_proportion_before: 0.0578214
average_stall_proportion_after: 0.0598505
Critical_IP_Detector_Accuracy_70: 0
Critical_IP_Detector_Accuracy_80: 0
Critical_IP_Detector_Accuracy_90: 0
Critical_IP_Detector_Coverage_70: 0
Critical_IP_Detector_Coverage_80: 0
Critical_IP_Detector_Coverage_90: 0
stat_90_percent_critical_ip_stalls_freq: 54104
stat_90_percent_non_critical_ip_stalls_freq: 18446744073709497512
AVERAGE_ROB_Occupancy_90_Percent_Critical_IP_Stalls: 66.5431
AVERAGE_ROB_Occupancy_90_Percent_Non_Critical_IP_Stalls: 1.50733e-11
Critical_IP_ROB_Stalls_Bucket_0: 8597
Non-critical_IP_ROB_Stalls_Bucket_0: 649654
Critical_IP_ROB_Stalls_Bucket_1: 8718
Non-critical_IP_ROB_Stalls_Bucket_1: 658148
Critical_IP_ROB_Stalls_Bucket_2: 6587
Non-critical_IP_ROB_Stalls_Bucket_2: 296182
Critical_IP_ROB_Stalls_Bucket_3: 8601
Non-critical_IP_ROB_Stalls_Bucket_3: 143950
Critical_IP_ROB_Stalls_Bucket_4: 10987
Non-critical_IP_ROB_Stalls_Bucket_4: 115468
Critical_IP_ROB_Stalls_Bucket_5: 5918
Non-critical_IP_ROB_Stalls_Bucket_5: 130050
Critical_IP_ROB_Stalls_Bucket_6: 8726
Non-critical_IP_ROB_Stalls_Bucket_6: 239307
0 => IPs accounting for >50 percent of stalls, 1 => 55, 2 => 60, 3 => 65 and so on till 90.
percent50: inf num IPs:  1
percent55: inf num IPs: 1
percent60: inf num IPs: 1
percent65: inf num IPs: 1
percent70: inf num IPs: 1
percent75: inf num IPs: 1
percent80: inf num IPs: 1
percent85: inf num IPs: 1
percent90: inf num IPs: 1
Critical_ROB_Stalls_Percent_0_Bucket_0: 14071
Non-critical_ROB_Stalls_Percent_0_Bucket_0: 644180
Critical_ROB_Stalls_Percent_0_Bucket_1: 31713
Non-critical_ROB_Stalls_Percent_0_Bucket_1: 635153
Critical_ROB_Stalls_Percent_0_Bucket_2: 7911
Non-critical_ROB_Stalls_Percent_0_Bucket_2: 294858
Critical_ROB_Stalls_Percent_0_Bucket_3: 359
Non-critical_ROB_Stalls_Percent_0_Bucket_3: 152192
Critical_ROB_Stalls_Percent_0_Bucket_4: 41
Non-critical_ROB_Stalls_Percent_0_Bucket_4: 126414
Critical_ROB_Stalls_Percent_0_Bucket_5: 5
Non-critical_ROB_Stalls_Percent_0_Bucket_5: 135963
Critical_ROB_Stalls_Percent_0_Bucket_6: 4
Non-critical_ROB_Stalls_Percent_0_Bucket_6: 248029
Critical_ROB_Stalls_Percent_1_Bucket_0: 14071
Non-critical_ROB_Stalls_Percent_1_Bucket_0: 644180
Critical_ROB_Stalls_Percent_1_Bucket_1: 31713
Non-critical_ROB_Stalls_Percent_1_Bucket_1: 635153
Critical_ROB_Stalls_Percent_1_Bucket_2: 7911
Non-critical_ROB_Stalls_Percent_1_Bucket_2: 294858
Critical_ROB_Stalls_Percent_1_Bucket_3: 359
Non-critical_ROB_Stalls_Percent_1_Bucket_3: 152192
Critical_ROB_Stalls_Percent_1_Bucket_4: 41
Non-critical_ROB_Stalls_Percent_1_Bucket_4: 126414
Critical_ROB_Stalls_Percent_1_Bucket_5: 5
Non-critical_ROB_Stalls_Percent_1_Bucket_5: 135963
Critical_ROB_Stalls_Percent_1_Bucket_6: 4
Non-critical_ROB_Stalls_Percent_1_Bucket_6: 248029
Critical_ROB_Stalls_Percent_2_Bucket_0: 14071
Non-critical_ROB_Stalls_Percent_2_Bucket_0: 644180
Critical_ROB_Stalls_Percent_2_Bucket_1: 31713
Non-critical_ROB_Stalls_Percent_2_Bucket_1: 635153
Critical_ROB_Stalls_Percent_2_Bucket_2: 7911
Non-critical_ROB_Stalls_Percent_2_Bucket_2: 294858
Critical_ROB_Stalls_Percent_2_Bucket_3: 359
Non-critical_ROB_Stalls_Percent_2_Bucket_3: 152192
Critical_ROB_Stalls_Percent_2_Bucket_4: 41
Non-critical_ROB_Stalls_Percent_2_Bucket_4: 126414
Critical_ROB_Stalls_Percent_2_Bucket_5: 5
Non-critical_ROB_Stalls_Percent_2_Bucket_5: 135963
Critical_ROB_Stalls_Percent_2_Bucket_6: 4
Non-critical_ROB_Stalls_Percent_2_Bucket_6: 248029
Critical_ROB_Stalls_Percent_3_Bucket_0: 14071
Non-critical_ROB_Stalls_Percent_3_Bucket_0: 644180
Critical_ROB_Stalls_Percent_3_Bucket_1: 31713
Non-critical_ROB_Stalls_Percent_3_Bucket_1: 635153
Critical_ROB_Stalls_Percent_3_Bucket_2: 7911
Non-critical_ROB_Stalls_Percent_3_Bucket_2: 294858
Critical_ROB_Stalls_Percent_3_Bucket_3: 359
Non-critical_ROB_Stalls_Percent_3_Bucket_3: 152192
Critical_ROB_Stalls_Percent_3_Bucket_4: 41
Non-critical_ROB_Stalls_Percent_3_Bucket_4: 126414
Critical_ROB_Stalls_Percent_3_Bucket_5: 5
Non-critical_ROB_Stalls_Percent_3_Bucket_5: 135963
Critical_ROB_Stalls_Percent_3_Bucket_6: 4
Non-critical_ROB_Stalls_Percent_3_Bucket_6: 248029
Critical_ROB_Stalls_Percent_4_Bucket_0: 14071
Non-critical_ROB_Stalls_Percent_4_Bucket_0: 644180
Critical_ROB_Stalls_Percent_4_Bucket_1: 31713
Non-critical_ROB_Stalls_Percent_4_Bucket_1: 635153
Critical_ROB_Stalls_Percent_4_Bucket_2: 7911
Non-critical_ROB_Stalls_Percent_4_Bucket_2: 294858
Critical_ROB_Stalls_Percent_4_Bucket_3: 359
Non-critical_ROB_Stalls_Percent_4_Bucket_3: 152192
Critical_ROB_Stalls_Percent_4_Bucket_4: 41
Non-critical_ROB_Stalls_Percent_4_Bucket_4: 126414
Critical_ROB_Stalls_Percent_4_Bucket_5: 5
Non-critical_ROB_Stalls_Percent_4_Bucket_5: 135963
Critical_ROB_Stalls_Percent_4_Bucket_6: 4
Non-critical_ROB_Stalls_Percent_4_Bucket_6: 248029
Critical_ROB_Stalls_Percent_5_Bucket_0: 14071
Non-critical_ROB_Stalls_Percent_5_Bucket_0: 644180
Critical_ROB_Stalls_Percent_5_Bucket_1: 31713
Non-critical_ROB_Stalls_Percent_5_Bucket_1: 635153
Critical_ROB_Stalls_Percent_5_Bucket_2: 7911
Non-critical_ROB_Stalls_Percent_5_Bucket_2: 294858
Critical_ROB_Stalls_Percent_5_Bucket_3: 359
Non-critical_ROB_Stalls_Percent_5_Bucket_3: 152192
Critical_ROB_Stalls_Percent_5_Bucket_4: 41
Non-critical_ROB_Stalls_Percent_5_Bucket_4: 126414
Critical_ROB_Stalls_Percent_5_Bucket_5: 5
Non-critical_ROB_Stalls_Percent_5_Bucket_5: 135963
Critical_ROB_Stalls_Percent_5_Bucket_6: 4
Non-critical_ROB_Stalls_Percent_5_Bucket_6: 248029
Critical_ROB_Stalls_Percent_6_Bucket_0: 14071
Non-critical_ROB_Stalls_Percent_6_Bucket_0: 644180
Critical_ROB_Stalls_Percent_6_Bucket_1: 31713
Non-critical_ROB_Stalls_Percent_6_Bucket_1: 635153
Critical_ROB_Stalls_Percent_6_Bucket_2: 7911
Non-critical_ROB_Stalls_Percent_6_Bucket_2: 294858
Critical_ROB_Stalls_Percent_6_Bucket_3: 359
Non-critical_ROB_Stalls_Percent_6_Bucket_3: 152192
Critical_ROB_Stalls_Percent_6_Bucket_4: 41
Non-critical_ROB_Stalls_Percent_6_Bucket_4: 126414
Critical_ROB_Stalls_Percent_6_Bucket_5: 5
Non-critical_ROB_Stalls_Percent_6_Bucket_5: 135963
Critical_ROB_Stalls_Percent_6_Bucket_6: 4
Non-critical_ROB_Stalls_Percent_6_Bucket_6: 248029
Critical_ROB_Stalls_Percent_7_Bucket_0: 14071
Non-critical_ROB_Stalls_Percent_7_Bucket_0: 644180
Critical_ROB_Stalls_Percent_7_Bucket_1: 31713
Non-critical_ROB_Stalls_Percent_7_Bucket_1: 635153
Critical_ROB_Stalls_Percent_7_Bucket_2: 7911
Non-critical_ROB_Stalls_Percent_7_Bucket_2: 294858
Critical_ROB_Stalls_Percent_7_Bucket_3: 359
Non-critical_ROB_Stalls_Percent_7_Bucket_3: 152192
Critical_ROB_Stalls_Percent_7_Bucket_4: 41
Non-critical_ROB_Stalls_Percent_7_Bucket_4: 126414
Critical_ROB_Stalls_Percent_7_Bucket_5: 5
Non-critical_ROB_Stalls_Percent_7_Bucket_5: 135963
Critical_ROB_Stalls_Percent_7_Bucket_6: 4
Non-critical_ROB_Stalls_Percent_7_Bucket_6: 248029
Critical_ROB_Stalls_Percent_8_Bucket_0: 14071
Non-critical_ROB_Stalls_Percent_8_Bucket_0: 644180
Critical_ROB_Stalls_Percent_8_Bucket_1: 31713
Non-critical_ROB_Stalls_Percent_8_Bucket_1: 635153
Critical_ROB_Stalls_Percent_8_Bucket_2: 7911
Non-critical_ROB_Stalls_Percent_8_Bucket_2: 294858
Critical_ROB_Stalls_Percent_8_Bucket_3: 359
Non-critical_ROB_Stalls_Percent_8_Bucket_3: 152192
Critical_ROB_Stalls_Percent_8_Bucket_4: 41
Non-critical_ROB_Stalls_Percent_8_Bucket_4: 126414
Critical_ROB_Stalls_Percent_8_Bucket_5: 5
Non-critical_ROB_Stalls_Percent_8_Bucket_5: 135963
Critical_ROB_Stalls_Percent_8_Bucket_6: 4
Non-critical_ROB_Stalls_Percent_8_Bucket_6: 248029
Average ROB occupancy Load Stall Begin: 108.906
Average ROB occupancy Load Stall End: 122.945
Min ROB occupancy Load Stall Begin: 1
Max ROB occupancy Load Stall Begin: 352
Min ROB occupancy Load Stall End: 1
Max ROB occupancy Load Stall End: 352
Average ROB occupancy Critical Load Stall Begin: 172.241
Average ROB occupancy Critical Load Stall End: 180.64
Min ROB occupancy Critical Load Stall Begin: 2
Max ROB occupancy Critical Load Stall Begin: 352
Min ROB occupancy Critical Load Stall End: 2
Max ROB occupancy Critical Load Stall End: 352
 ROB Load Stall Begin Bucket Count 0: 900689
 ROB Load Stall End Bucket Count 0: 658251
 ROB Critical Load Stall Begin Bucket Count 0: 1234
 ROB Critical Load Stall End Bucket Count 0: 1030
 ROB Load Stall Begin Bucket Count 1: 555987
 ROB Load Stall End Bucket Count 1: 666866
 ROB Critical Load Stall Begin Bucket Count 1: 1154
 ROB Critical Load Stall End Bucket Count 1: 1152
 ROB Load Stall Begin Bucket Count 2: 244426
 ROB Load Stall End Bucket Count 2: 302769
 ROB Critical Load Stall Begin Bucket Count 2: 904
 ROB Critical Load Stall End Bucket Count 2: 884
 ROB Load Stall Begin Bucket Count 3: 131952
 ROB Load Stall End Bucket Count 3: 152551
 ROB Critical Load Stall Begin Bucket Count 3: 920
 ROB Critical Load Stall End Bucket Count 3: 951
 ROB Load Stall Begin Bucket Count 4: 121713
 ROB Load Stall End Bucket Count 4: 126455
 ROB Critical Load Stall Begin Bucket Count 4: 1097
 ROB Critical Load Stall End Bucket Count 4: 1115
 ROB Load Stall Begin Bucket Count 5: 135329
 ROB Load Stall End Bucket Count 5: 135968
 ROB Critical Load Stall Begin Bucket Count 5: 596
 ROB Critical Load Stall End Bucket Count 5: 690
 ROB Load Stall Begin Bucket Count 6: 200797
 ROB Load Stall End Bucket Count 6: 248033
 ROB Critical Load Stall Begin Bucket Count 6: 1249
 ROB Critical Load Stall End Bucket Count 6: 1335
PIST Tag Read Accesses: 0
PIST Read Accesses: 0
PIST Tag Write Accesses: 0
PIST Write Accesses: 0
Criticality detector called times: 0
Max global_stall_cycles_count: 0
Threshold Modified: 0 times, factor: 0
Sturdy critical IP cache stats: 
 Unused entries: 0
CIC Tag Read Accesses: 0
CIC Read Accesses: 0
CIC Tag Write Accesses: 0
CIC Write Accesses: 0
Wobbly critical IP cache stats: 
 Unused entries: 5
CIC Tag Read Accesses: 127182811
CIC Read Accesses: 0
CIC Tag Write Accesses: 29334
CIC Write Accesses: 0
ITLB TOTAL     ACCESS:    8064924  HIT:    7937674  MISS:     127250  HIT %:    98.4222  MISS %:    1.57782   MPKI: 2.545
ITLB LOAD TRANSLATION ACCESS:    7297525  HIT:    7278196  MISS:      19329  HIT %:    99.7351  MISS %:   0.264871   MPKI: 0.38658
ITLB TRANSLATION FROM L1D PREFETCHER ACCESS:     767399  HIT:     659478  MISS:     107921  HIT %:    85.9368  MISS %:    14.0632   MPKI: 2.15842
ITLB PREFETCH  REQUESTED:          0  ISSUED:          0  USEFUL:      91608  USELESS:      16319
ITLB USEFUL LOAD PREFETCHES:      91608 PREFETCH ISSUED TO LOWER LEVEL:          0  ACCURACY: inf
ITLB TIMELY PREFETCHES:      91608 LATE PREFETCHES: 337 DROPPED PREFETCHES: 961
ITLB PREFETCHES SAME FILL-ORIGIN LEVEL: 0 DIFFERENT FILL-ORIGIN LEVEL: 0
ITLB AVERAGE MISS LATENCY: 120098 cycles
ITLB RQ	ACCESS:   10889165	FORWARD:          0	MERGED:    2813656	TO_CACHE:    8075509

DTLB TOTAL     ACCESS:    9713537  HIT:    9402342  MISS:     311195  HIT %:    96.7963  MISS %:    3.20372   MPKI: 6.2239
DTLB LOAD TRANSLATION ACCESS:    9713537  HIT:    9402342  MISS:     311195  HIT %:    96.7963  MISS %:    3.20372   MPKI: 6.2239
DTLB PREFETCH  REQUESTED:          0  ISSUED:          0  USEFUL:          0  USELESS:          0
DTLB USEFUL LOAD PREFETCHES:          0 PREFETCH ISSUED TO LOWER LEVEL:          0  ACCURACY: -nan
DTLB TIMELY PREFETCHES:          0 LATE PREFETCHES: 0 DROPPED PREFETCHES: 0
DTLB PREFETCHES SAME FILL-ORIGIN LEVEL: 0 DIFFERENT FILL-ORIGIN LEVEL: 0
DTLB AVERAGE MISS LATENCY: 20.4472 cycles
DTLB RQ	ACCESS:   11976701	FORWARD:          0	MERGED:    2248903	TO_CACHE:    9727798

STLB TOTAL     ACCESS:     438445  HIT:     407645  MISS:      30800  HIT %:    92.9752  MISS %:    7.02483   MPKI: 0.616
STLB LOAD TRANSLATION ACCESS:     330187  HIT:     304589  MISS:      25598  HIT %:    92.2474  MISS %:    7.75258   MPKI: 0.51196
STLB TRANSLATION FROM L1D PREFETCHER ACCESS:     108258  HIT:     103056  MISS:       5202  HIT %:    95.1948  MISS %:    4.80519   MPKI: 0.10404
STLB PREFETCH  REQUESTED:          0  ISSUED:          0  USEFUL:       3076  USELESS:       2151
STLB USEFUL LOAD PREFETCHES:       3076 PREFETCH ISSUED TO LOWER LEVEL:          0  ACCURACY: inf
STLB TIMELY PREFETCHES:       3076 LATE PREFETCHES: 0 DROPPED PREFETCHES: 961
STLB PREFETCHES SAME FILL-ORIGIN LEVEL: 0 DIFFERENT FILL-ORIGIN LEVEL: 0
STLB AVERAGE MISS LATENCY: 133.655 cycles
STLB RQ	ACCESS:     439406	FORWARD:          0	MERGED:          0	TO_CACHE:     439406

STLB Hit, L1D data hit: 0
STLB Hit, L2C data hit: 0
STLB Hit, LLC data hit: 0
STLB Hit, LLC data miss: 0
STLB STLB hints to L2: 0
L1D TOTAL     ACCESS:   11589086  HIT:   11179062  MISS:     410024  HIT %:     96.462  MISS %:    3.53802   MPKI: 8.20048
L1D LOAD      ACCESS:    6612437  HIT:    6298847  MISS:     313590  HIT %:    95.2576  MISS %:    4.74243   MPKI: 6.2718
L1D RFO       ACCESS:    4976649  HIT:    4880215  MISS:      96434  HIT %:    98.0623  MISS %:    1.93773   MPKI: 1.92868
L1D PREFETCH  REQUESTED:          0  ISSUED:          0  USEFUL:          0  USELESS:          0
L1D USEFUL LOAD PREFETCHES:          0 PREFETCH ISSUED TO LOWER LEVEL:          0  ACCURACY: -nan
L1D TIMELY PREFETCHES:          0 LATE PREFETCHES: 0 DROPPED PREFETCHES: 0
L1D PREFETCHES SAME FILL-ORIGIN LEVEL: 0 DIFFERENT FILL-ORIGIN LEVEL: 0
L1D AVERAGE MISS LATENCY: 125.362 cycles
L1D RQ	ACCESS:   10447903	FORWARD:          0	MERGED:    3698263	TO_CACHE:    6668911
L1D WQ	ACCESS:    5417473	FORWARD:      80729	MERGED:     109683	TO_CACHE:    5307790

L1D UNIQUE REGIONS ACCESSED: 0
L1D REGIONS CONFLICTS: 0
L1D Cross Page Prefetch Requests: 0
L1D Same Page Prefetch Requests: 0
L1D ROI Sum of L1D PQ occupancy: 0
L1D PREFETCHES PUSHED FROM L2C: 0
L1I TOTAL     ACCESS:   10847130  HIT:    9977773  MISS:     869357  HIT %:    91.9854  MISS %:    8.01463   MPKI: 17.3871
L1I LOAD      ACCESS:    9062187  HIT:    8998941  MISS:      63246  HIT %:    99.3021  MISS %:   0.697911   MPKI: 1.26492
L1I PREFETCH  ACCESS:    1784943  HIT:     978832  MISS:     806111  HIT %:    54.8383  MISS %:    45.1617   MPKI: 16.1222
L1I PREFETCH  REQUESTED:    1859589  ISSUED:    1857861  USEFUL:     603098  USELESS:     203079
L1I USEFUL LOAD PREFETCHES:     603098 PREFETCH ISSUED TO LOWER LEVEL:     815804  ACCURACY: 73.9268
L1I TIMELY PREFETCHES:     603098 LATE PREFETCHES: 9700 DROPPED PREFETCHES: 3194
L1I PREFETCHES SAME FILL-ORIGIN LEVEL: 815804 DIFFERENT FILL-ORIGIN LEVEL: 0
L1I AVERAGE MISS LATENCY: 540510 cycles
L1I RQ	ACCESS:   13283105	FORWARD:          0	MERGED:    4212060	TO_CACHE:    9071045
L1I PQ	ACCESS:    1857861	FORWARD:          0	MERGED:      39741	TO_CACHE:    1818120

BTB TOTAL     ACCESS:    3947210  HIT:    3651661  MISS:     295549  HIT %:    92.5125  MISS %:    7.48754   MPKI: 5.91098
BTB BRANCH_DIRECT_JUMP	ACCESS:     347939  HIT:     337009  MISS:      10930
BTB BRANCH_INDIRECT	ACCESS:     148210  HIT:      89092  MISS:      59118
BTB BRANCH_CONDITIONAL	ACCESS:    2238087  HIT:    2191940  MISS:      46147
BTB BRANCH_DIRECT_CALL	ACCESS:     570721  HIT:     551837  MISS:      18884
BTB BRANCH_INDIRECT_CALL	ACCESS:      25133  HIT:      23193  MISS:       1940
BTB BRANCH_RETURN	ACCESS:     617120  HIT:     458590  MISS:     158530
BTB BRANCH_OTHER ACCESS:          0  HIT:          0  MISS:          0

L2C TOTAL     ACCESS:    1700943  HIT:    1194656  MISS:     506287  HIT %:    70.2349  MISS %:    29.7651   MPKI: 10.1257
L2C LOAD      ACCESS:     367132  HIT:     148978  MISS:     218154  HIT %:    40.5789  MISS %:    59.4211   MPKI: 4.36308
L2C DATA LOAD MPKI: 3.93218
L2C INSTRUCTION LOAD MPKI: 0.4309
L2C RFO       ACCESS:      96433  HIT:      16358  MISS:      80075  HIT %:    16.9631  MISS %:    83.0369   MPKI: 1.6015
L2C PREFETCH  ACCESS:     991754  HIT:     816517  MISS:     175237  HIT %:    82.3306  MISS %:    17.6694   MPKI: 3.50474
L2C DATA PREFETCH MPKI: 0.82338
L2C INSTRUCTION PREFETCH MPKI: 2.68136
L2C WRITEBACK ACCESS:     204315  HIT:     193785  MISS:      10530  HIT %:    94.8462  MISS %:    5.15381   MPKI: 0.2106
L2C LOAD TRANSLATION ACCESS:      33805  HIT:      14698  MISS:      19107  HIT %:    43.4788  MISS %:    56.5212   MPKI: 0.38214
L2C TRANSLATION FROM L1D PREFETCHER ACCESS:       7504  HIT:       4320  MISS:       3184  HIT %:    57.5693  MISS %:    42.4307   MPKI: 0.06368
L2C PREFETCH  REQUESTED:     285908  ISSUED:     285908  USEFUL:       8788  USELESS:     171675
L2C USEFUL LOAD PREFETCHES:       8788 PREFETCH ISSUED TO LOWER LEVEL:     178671  ACCURACY: 4.91854
L2C TIMELY PREFETCHES:       8788 LATE PREFETCHES: 89 DROPPED PREFETCHES: 0
L2C PREFETCHES SAME FILL-ORIGIN LEVEL: 44939 DIFFERENT FILL-ORIGIN LEVEL: 3346
L2C AVERAGE MISS LATENCY: 114.475 cycles
L2C RQ	ACCESS:     504878	FORWARD:          0	MERGED:          0	TO_CACHE:     504874
L2C WQ	ACCESS:     204315	FORWARD:          4	MERGED:          0	TO_CACHE:     204315
L2C PQ	ACCESS:    1101712	FORWARD:          0	MERGED:     102662	TO_CACHE:     999050

L2C Instructions Evicting Data 99038
L2C Translations Evicting Data 14288
L2C Data Evicting Data 206453
L2C Instructions Evicting Instructions 50068
L2C Translations Evicting Instructions 6970
L2C Data Evicting Instructions 97024
L2C Instructions Evicting Translations 6507
L2C Translations Evicting Translations 1033
L2C Data Evicting Translations 14376
L2C Dense regions hint from L2: 0
PSCL5 TOTAL     ACCESS:      31761  HIT:      31761  MISS:          0  HIT %:        100  MISS %:          0   MPKI: 0
PSCL5 LOAD TRANSLATION ACCESS:      25598  HIT:      25598  MISS:          0  HIT %:        100  MISS %:          0   MPKI: 0
PSCL5 TRANSLATION FROM L1D PREFETCHER ACCESS:       6163  HIT:       6163  MISS:          0  HIT %:        100  MISS %:          0   MPKI: 0
PSCL5 PREFETCH  REQUESTED:          0  ISSUED:          0  USEFUL:          0  USELESS:          0
PSCL5 USEFUL LOAD PREFETCHES:          0 PREFETCH ISSUED TO LOWER LEVEL:          0  ACCURACY: -nan
PSCL5 TIMELY PREFETCHES:          0 LATE PREFETCHES: 0 DROPPED PREFETCHES: 0
PSCL5 PREFETCHES SAME FILL-ORIGIN LEVEL: 0 DIFFERENT FILL-ORIGIN LEVEL: 0

PSCL4 TOTAL     ACCESS:      30797  HIT:      30707  MISS:         90  HIT %:    99.7078  MISS %:   0.292236   MPKI: 0.0018
PSCL4 LOAD TRANSLATION ACCESS:      24959  HIT:      24869  MISS:         90  HIT %:    99.6394  MISS %:   0.360591   MPKI: 0.0018
PSCL4 TRANSLATION FROM L1D PREFETCHER ACCESS:       5838  HIT:       5838  MISS:          0  HIT %:        100  MISS %:          0   MPKI: 0
PSCL4 PREFETCH  REQUESTED:          0  ISSUED:          0  USEFUL:          0  USELESS:          0
PSCL4 USEFUL LOAD PREFETCHES:          0 PREFETCH ISSUED TO LOWER LEVEL:          0  ACCURACY: -nan
PSCL4 TIMELY PREFETCHES:          0 LATE PREFETCHES: 0 DROPPED PREFETCHES: 0
PSCL4 PREFETCHES SAME FILL-ORIGIN LEVEL: 0 DIFFERENT FILL-ORIGIN LEVEL: 0

PSCL3 TOTAL     ACCESS:      31386  HIT:      31296  MISS:         90  HIT %:    99.7132  MISS %:   0.286752   MPKI: 0.0018
PSCL3 LOAD TRANSLATION ACCESS:      25548  HIT:      25458  MISS:         90  HIT %:    99.6477  MISS %:   0.352278   MPKI: 0.0018
PSCL3 TRANSLATION FROM L1D PREFETCHER ACCESS:       5838  HIT:       5838  MISS:          0  HIT %:        100  MISS %:          0   MPKI: 0
PSCL3 PREFETCH  REQUESTED:          0  ISSUED:          0  USEFUL:          0  USELESS:          0
PSCL3 USEFUL LOAD PREFETCHES:          0 PREFETCH ISSUED TO LOWER LEVEL:          0  ACCURACY: -nan
PSCL3 TIMELY PREFETCHES:          0 LATE PREFETCHES: 0 DROPPED PREFETCHES: 0
PSCL3 PREFETCHES SAME FILL-ORIGIN LEVEL: 0 DIFFERENT FILL-ORIGIN LEVEL: 0

PSCL2 TOTAL     ACCESS:      31305  HIT:      22574  MISS:       8731  HIT %:    72.1099  MISS %:    27.8901   MPKI: 0.17462
PSCL2 LOAD TRANSLATION ACCESS:      26251  HIT:      17520  MISS:       8731  HIT %:    66.7403  MISS %:    33.2597   MPKI: 0.17462
PSCL2 TRANSLATION FROM L1D PREFETCHER ACCESS:       5054  HIT:       5054  MISS:          0  HIT %:        100  MISS %:          0   MPKI: 0
PSCL2 PREFETCH  REQUESTED:          0  ISSUED:          0  USEFUL:          0  USELESS:          0
PSCL2 USEFUL LOAD PREFETCHES:          0 PREFETCH ISSUED TO LOWER LEVEL:          0  ACCURACY: -nan
PSCL2 TIMELY PREFETCHES:          0 LATE PREFETCHES: 0 DROPPED PREFETCHES: 0
PSCL2 PREFETCHES SAME FILL-ORIGIN LEVEL: 0 DIFFERENT FILL-ORIGIN LEVEL: 0

LLC TOTAL     ACCESS:     662594  HIT:     419497  MISS:     243097  HIT %:    63.3113  MISS %:    36.6887   MPKI: 4.86194
LLC LOAD      ACCESS:     218065  HIT:      90094  MISS:     127971  HIT %:    41.3152  MISS %:    58.6848   MPKI: 2.55942
LLC RFO       ACCESS:      80073  HIT:       5991  MISS:      74082  HIT %:    7.48192  MISS %:    92.5181   MPKI: 1.48164
LLC PREFETCH  ACCESS:     178594  HIT:     153823  MISS:      24771  HIT %:      86.13  MISS %:      13.87   MPKI: 0.49542
LLC WRITEBACK ACCESS:     163571  HIT:     155648  MISS:       7923  HIT %:    95.1562  MISS %:    4.84377   MPKI: 0.15846
LLC LOAD TRANSLATION ACCESS:      19107  HIT:      11091  MISS:       8016  HIT %:    58.0468  MISS %:    41.9532   MPKI: 0.16032
LLC TRANSLATION FROM L1D PREFETCHER ACCESS:       3184  HIT:       2850  MISS:        334  HIT %:    89.5101  MISS %:    10.4899   MPKI: 0.00668
LLC PREFETCH  REQUESTED:          0  ISSUED:          0  USEFUL:       1222  USELESS:      31423
LLC USEFUL LOAD PREFETCHES:       1222 PREFETCH ISSUED TO LOWER LEVEL:      24770  ACCURACY: 4.93339
LLC TIMELY PREFETCHES:       1222 LATE PREFETCHES: 0 DROPPED PREFETCHES: 0
LLC PREFETCHES SAME FILL-ORIGIN LEVEL: 955 DIFFERENT FILL-ORIGIN LEVEL: 0
LLC AVERAGE MISS LATENCY: 176.983 cycles
LLC RQ	ACCESS:     320431	FORWARD:          0	MERGED:          0	TO_CACHE:     320429
LLC WQ	ACCESS:     163571	FORWARD:          2	MERGED:          0	TO_CACHE:     163571
LLC PQ	ACCESS:     178671	FORWARD:          0	MERGED:         57	TO_CACHE:     178614

LLC Dense regions hint to LLC: 0

RAW hits: 1284264
Loads Generated: 11732167
Loads sent to L1D: 10447903
Stores Generated: 5417460
Stores sent to L1D: 5417473
Major fault: 0 Minor fault: 17223
Allocated PAGES: 17223
I-Shadow cache 408 bytes
Touched + WorthPF tables 6144 bytes 
MMA filter 174 bytes 
FNL filter 272 bytes 
TOTAL PREFETCHER STORAGE SIZE: 25174 bytes
CPU 0 L1I next line prefetcher final stats
------------------
Depth Distribution
------------------
depth 0: 18064
depth 1: 155838
depth 2: 416576
depth 3: 310379
depth 4: 13508
depth 5: 146
depth 6: 0
depth 7: 0
depth 8: 0
depth 9: 0
depth 10: 0
depth 11: 0
depth 12: 0
depth 13: 0
depth 14: 0
depth 15: 0
depth 16: 0
depth 17: 0
depth 18: 0
depth 19: 0
depth 20: 0
depth 21: 0
depth 22: 0
depth 23: 0
depth 24: 0
depth 25: 0
depth 26: 0
depth 27: 0
depth 28: 0
depth 29: 0
Total: 914511
------------------
ST read accesses: 244626
ST write accesses: 94772
PT read accesses: 5736193
PT write accesses: 274767
FILTER read accesses: 1925662
FILTER write accesses: 1448751
GHR read accesses: 1019271
GHR write accesses: 46851
PERC read accesses: 40628556
PERC write accesses: 2950989
GHR counter read accesses: 678796
GHR counter write accesses: 798398
GHR ip read accesses: 1975290
GHR ip write accesses: 1357592
ST tag read accesses: 11348071
ST tag write accesses: 1877926

DRAM Statistics
 CHANNEL 0
 RQ ROW_BUFFER_HIT:      59751  ROW_BUFFER_MISS:     175419
 DBUS_CONGESTED:         69
 WQ ROW_BUFFER_HIT:      27416  ROW_BUFFER_MISS:     126355  FULL:          0

 AVG_CONGESTED_CYCLE: 5
 All warmup complete: 2
Channel 0 Bank busy for read cycles: 0
Channel 0 Bank busy for write cycles: 0
Channel 0
Rank 0
0banks busy for read cycles: 36597075
0banks busy for write cycles: 63230
1banks busy for read cycles: 14844949
1banks busy for write cycles: 8817396
2banks busy for read cycles: 3357943
2banks busy for write cycles: 2898637
3banks busy for read cycles: 488875
3banks busy for write cycles: 743490
4banks busy for read cycles: 203668
4banks busy for write cycles: 319157
5banks busy for read cycles: 120175
5banks busy for write cycles: 175059
6banks busy for read cycles: 86080
6banks busy for write cycles: 118754
7banks busy for read cycles: 94318
7banks busy for write cycles: 160363
8banks busy for read cycles: 474217
8banks busy for write cycles: 836898

CPU 0 Branch Prediction Accuracy: 99.5889% MPKI: 0.70108 Average ROB Occupancy at Mispredict: 102.131
Branch types
NOT_BRANCH: 41473363 82.9467%
BRANCH_DIRECT_JUMP: 347939 0.695878%
BRANCH_INDIRECT: 148210 0.29642%
BRANCH_CONDITIONAL: 6817242 13.6345%
BRANCH_DIRECT_CALL: 570721 1.14144%
BRANCH_INDIRECT_CALL: 25133 0.050266%
BRANCH_RETURN: 617120 1.23424%
BRANCH_OTHER: 0 0%

DRAM PAGES: 1048576
Allocated PAGES: 17223
