
*** ChampSim Multicore Out-of-Order Simulator ***

Warmup Instructions: 50000000
Simulation Instructions: 50000000
Number of CPUs: 1
LLC sets: 2048
LLC ways: 16
Off-chip DRAM Size: 4096 MB Channels: 1 Width: 64-bit Data Rate: 6400 MT/s
CPU 0 runs ../IPC-traces//server_024.champsimtrace.xz
.xz
BTB has LRU replacement policy
ITLB has LRU replacement policy
DTLB has LRU replacement policy
STLB has LRU replacement policy
CPU 0 L1I next line prefetcher
L1I has LRU replacement policy
L1D has LRU replacement policy
Bingo PHT WAYS: 16 and PHT_SIZE: 16384
Initialize SRRIP state for L2C
Initialize DRRIP state for LLC
Heartbeat CPU 0 instructions: 10000000 cycles: 2875093 heartbeat IPC: 3.47815 cumulative IPC: 3.47815 (Simulation time: 0 hr 3 min 22 sec) 
Heartbeat CPU 0 instructions: 20000002 cycles: 5743992 heartbeat IPC: 3.48566 cumulative IPC: 3.4819 (Simulation time: 0 hr 6 min 3 sec) 
Heartbeat CPU 0 instructions: 30000002 cycles: 8614758 heartbeat IPC: 3.48339 cumulative IPC: 3.4824 (Simulation time: 0 hr 8 min 42 sec) 
Heartbeat CPU 0 instructions: 40000000 cycles: 11485594 heartbeat IPC: 3.48331 cumulative IPC: 3.48262 (Simulation time: 0 hr 11 min 3 sec) 
Heartbeat CPU 0 instructions: 50000001 cycles: 14353382 heartbeat IPC: 3.48701 cumulative IPC: 3.4835 (Simulation time: 0 hr 13 min 12 sec) 

Warmup complete CPU 0 instructions: 50000001 cycles: 14353382 (Simulation time: 0 hr 13 min 12 sec) 

Heartbeat CPU 0 instructions: 60000003 cycles: 30115944 heartbeat IPC: 0.634415 cumulative IPC: 0.634415 (Simulation time: 0 hr 15 min 42 sec) 
Heartbeat CPU 0 instructions: 70000000 cycles: 45830641 heartbeat IPC: 0.636347 cumulative IPC: 0.635379 (Simulation time: 0 hr 18 min 13 sec) 
*** Reached end of trace for Core: 0 Repeating trace: ../IPC-traces//server_024.champsimtrace.xz
Heartbeat CPU 0 instructions: 80000003 cycles: 61440717 heartbeat IPC: 0.640612 cumulative IPC: 0.637114 (Simulation time: 0 hr 20 min 43 sec) 
Heartbeat CPU 0 instructions: 90000003 cycles: 77136129 heartbeat IPC: 0.637129 cumulative IPC: 0.637118 (Simulation time: 0 hr 23 min 13 sec) 
Heartbeat CPU 0 instructions: 100000002 cycles: 92868962 heartbeat IPC: 0.635613 cumulative IPC: 0.636816 (Simulation time: 0 hr 25 min 56 sec) 
Finished CPU 0 instructions: 50000001 cycles: 78515580 cumulative IPC: 0.636816 (Simulation time: 0 hr 25 min 56 sec) 

ChampSim completed all CPUs

Region of Interest Statistics

CPU 0 cumulative IPC: 0.636816 instructions: 50000001 cycles: 78515580

CPU 0 Average Load ROB stall cycles: 1.964e+07
CPU 0 Fraction of times ROB stalled by Loads: 36.6035
CPU 0 Percentage of Load stall cycles in Total stall cycles: 2.79679e+08
Issued all: 27864050
Issued LT all: 22030560
rob_not_full_when_issued_lt_all: 21527067
Issued LT one: 17044809
rob_not_full_when_issued_lt_one: 16606150
FVP critical_dynamic_instances_0: 2160213
FVP unique_critical_ips_0: 5796
 Total stall cycles: 65293632
 Total load stall cycles: 182612416407695
Unique Load IPs: 13758
CPU 0 NUM of IPS identified critical: 0
CPU 0 Num of Load IPs stalling ROB: 0
Threshold modification factor: 0
Trouble in retire width: -nan
MaC = Marked as critical.
lt_50_percent_before_Mac: 0
gt_90_percent_before_Mac: 0
gt_75_percent_before_Mac: 0
gt_50_percent_before_Mac: 0
stall_proportion_bin_same_before_after: 0
stall_proportion_bin_lower_before_after: 0
stall_proportion_bin_upper_before_after: 0
average_stall_proportion_before: -nan
average_stall_proportion_after: -nan
Critical IP stalls, total frequency: 0
Non-critical IP stalls, total frequency: 0
Total Freq all stalling IPs: 0
Critical_IP_Detector_Accuracy_70: 0.000172533
Critical_IP_Detector_Accuracy_80: 0.000172533
Critical_IP_Detector_Accuracy_90: 0.000172533
Critical_IP_Detector_Coverage_70: 1
Critical_IP_Detector_Coverage_80: 1
Critical_IP_Detector_Coverage_90: 1
stat_90_percent_critical_ip_stalls_freq: 102086
stat_90_percent_non_critical_ip_stalls_freq: 18446744073709449530
AVERAGE_ROB_Occupancy_90_Percent_Critical_IP_Stalls: 100.138
AVERAGE_ROB_Occupancy_90_Percent_Non_Critical_IP_Stalls: 8.1646e-12
Critical_IP_ROB_Stalls_Bucket_0: 0
Non-critical_IP_ROB_Stalls_Bucket_0: 2328331
Critical_IP_ROB_Stalls_Bucket_1: 0
Non-critical_IP_ROB_Stalls_Bucket_1: 719301
Critical_IP_ROB_Stalls_Bucket_2: 0
Non-critical_IP_ROB_Stalls_Bucket_2: 244009
Critical_IP_ROB_Stalls_Bucket_3: 0
Non-critical_IP_ROB_Stalls_Bucket_3: 57960
Critical_IP_ROB_Stalls_Bucket_4: 0
Non-critical_IP_ROB_Stalls_Bucket_4: 20040
Critical_IP_ROB_Stalls_Bucket_5: 0
Non-critical_IP_ROB_Stalls_Bucket_5: 10215
Critical_IP_ROB_Stalls_Bucket_6: 0
Non-critical_IP_ROB_Stalls_Bucket_6: 23520
0 => IPs accounting for >50 percent of stalls, 1 => 55, 2 => 60, 3 => 65 and so on till 90.
percent50: inf num IPs:  1
percent55: inf num IPs: 1
percent60: inf num IPs: 1
percent65: inf num IPs: 1
percent70: inf num IPs: 1
percent75: inf num IPs: 1
percent80: inf num IPs: 1
percent85: inf num IPs: 1
percent90: inf num IPs: 1
Critical_ROB_Stalls_Percent_0_Bucket_0: 2732
Non-critical_ROB_Stalls_Percent_0_Bucket_0: 2325599
Critical_ROB_Stalls_Percent_0_Bucket_1: 67982
Non-critical_ROB_Stalls_Percent_0_Bucket_1: 651319
Critical_ROB_Stalls_Percent_0_Bucket_2: 27911
Non-critical_ROB_Stalls_Percent_0_Bucket_2: 216098
Critical_ROB_Stalls_Percent_0_Bucket_3: 3459
Non-critical_ROB_Stalls_Percent_0_Bucket_3: 54501
Critical_ROB_Stalls_Percent_0_Bucket_4: 2
Non-critical_ROB_Stalls_Percent_0_Bucket_4: 20038
Critical_ROB_Stalls_Percent_0_Bucket_5: 0
Non-critical_ROB_Stalls_Percent_0_Bucket_5: 10215
Critical_ROB_Stalls_Percent_0_Bucket_6: 0
Non-critical_ROB_Stalls_Percent_0_Bucket_6: 23520
Critical_ROB_Stalls_Percent_1_Bucket_0: 2732
Non-critical_ROB_Stalls_Percent_1_Bucket_0: 2325599
Critical_ROB_Stalls_Percent_1_Bucket_1: 67982
Non-critical_ROB_Stalls_Percent_1_Bucket_1: 651319
Critical_ROB_Stalls_Percent_1_Bucket_2: 27911
Non-critical_ROB_Stalls_Percent_1_Bucket_2: 216098
Critical_ROB_Stalls_Percent_1_Bucket_3: 3459
Non-critical_ROB_Stalls_Percent_1_Bucket_3: 54501
Critical_ROB_Stalls_Percent_1_Bucket_4: 2
Non-critical_ROB_Stalls_Percent_1_Bucket_4: 20038
Critical_ROB_Stalls_Percent_1_Bucket_5: 0
Non-critical_ROB_Stalls_Percent_1_Bucket_5: 10215
Critical_ROB_Stalls_Percent_1_Bucket_6: 0
Non-critical_ROB_Stalls_Percent_1_Bucket_6: 23520
Critical_ROB_Stalls_Percent_2_Bucket_0: 2732
Non-critical_ROB_Stalls_Percent_2_Bucket_0: 2325599
Critical_ROB_Stalls_Percent_2_Bucket_1: 67982
Non-critical_ROB_Stalls_Percent_2_Bucket_1: 651319
Critical_ROB_Stalls_Percent_2_Bucket_2: 27911
Non-critical_ROB_Stalls_Percent_2_Bucket_2: 216098
Critical_ROB_Stalls_Percent_2_Bucket_3: 3459
Non-critical_ROB_Stalls_Percent_2_Bucket_3: 54501
Critical_ROB_Stalls_Percent_2_Bucket_4: 2
Non-critical_ROB_Stalls_Percent_2_Bucket_4: 20038
Critical_ROB_Stalls_Percent_2_Bucket_5: 0
Non-critical_ROB_Stalls_Percent_2_Bucket_5: 10215
Critical_ROB_Stalls_Percent_2_Bucket_6: 0
Non-critical_ROB_Stalls_Percent_2_Bucket_6: 23520
Critical_ROB_Stalls_Percent_3_Bucket_0: 2732
Non-critical_ROB_Stalls_Percent_3_Bucket_0: 2325599
Critical_ROB_Stalls_Percent_3_Bucket_1: 67982
Non-critical_ROB_Stalls_Percent_3_Bucket_1: 651319
Critical_ROB_Stalls_Percent_3_Bucket_2: 27911
Non-critical_ROB_Stalls_Percent_3_Bucket_2: 216098
Critical_ROB_Stalls_Percent_3_Bucket_3: 3459
Non-critical_ROB_Stalls_Percent_3_Bucket_3: 54501
Critical_ROB_Stalls_Percent_3_Bucket_4: 2
Non-critical_ROB_Stalls_Percent_3_Bucket_4: 20038
Critical_ROB_Stalls_Percent_3_Bucket_5: 0
Non-critical_ROB_Stalls_Percent_3_Bucket_5: 10215
Critical_ROB_Stalls_Percent_3_Bucket_6: 0
Non-critical_ROB_Stalls_Percent_3_Bucket_6: 23520
Critical_ROB_Stalls_Percent_4_Bucket_0: 2732
Non-critical_ROB_Stalls_Percent_4_Bucket_0: 2325599
Critical_ROB_Stalls_Percent_4_Bucket_1: 67982
Non-critical_ROB_Stalls_Percent_4_Bucket_1: 651319
Critical_ROB_Stalls_Percent_4_Bucket_2: 27911
Non-critical_ROB_Stalls_Percent_4_Bucket_2: 216098
Critical_ROB_Stalls_Percent_4_Bucket_3: 3459
Non-critical_ROB_Stalls_Percent_4_Bucket_3: 54501
Critical_ROB_Stalls_Percent_4_Bucket_4: 2
Non-critical_ROB_Stalls_Percent_4_Bucket_4: 20038
Critical_ROB_Stalls_Percent_4_Bucket_5: 0
Non-critical_ROB_Stalls_Percent_4_Bucket_5: 10215
Critical_ROB_Stalls_Percent_4_Bucket_6: 0
Non-critical_ROB_Stalls_Percent_4_Bucket_6: 23520
Critical_ROB_Stalls_Percent_5_Bucket_0: 2732
Non-critical_ROB_Stalls_Percent_5_Bucket_0: 2325599
Critical_ROB_Stalls_Percent_5_Bucket_1: 67982
Non-critical_ROB_Stalls_Percent_5_Bucket_1: 651319
Critical_ROB_Stalls_Percent_5_Bucket_2: 27911
Non-critical_ROB_Stalls_Percent_5_Bucket_2: 216098
Critical_ROB_Stalls_Percent_5_Bucket_3: 3459
Non-critical_ROB_Stalls_Percent_5_Bucket_3: 54501
Critical_ROB_Stalls_Percent_5_Bucket_4: 2
Non-critical_ROB_Stalls_Percent_5_Bucket_4: 20038
Critical_ROB_Stalls_Percent_5_Bucket_5: 0
Non-critical_ROB_Stalls_Percent_5_Bucket_5: 10215
Critical_ROB_Stalls_Percent_5_Bucket_6: 0
Non-critical_ROB_Stalls_Percent_5_Bucket_6: 23520
Critical_ROB_Stalls_Percent_6_Bucket_0: 2732
Non-critical_ROB_Stalls_Percent_6_Bucket_0: 2325599
Critical_ROB_Stalls_Percent_6_Bucket_1: 67982
Non-critical_ROB_Stalls_Percent_6_Bucket_1: 651319
Critical_ROB_Stalls_Percent_6_Bucket_2: 27911
Non-critical_ROB_Stalls_Percent_6_Bucket_2: 216098
Critical_ROB_Stalls_Percent_6_Bucket_3: 3459
Non-critical_ROB_Stalls_Percent_6_Bucket_3: 54501
Critical_ROB_Stalls_Percent_6_Bucket_4: 2
Non-critical_ROB_Stalls_Percent_6_Bucket_4: 20038
Critical_ROB_Stalls_Percent_6_Bucket_5: 0
Non-critical_ROB_Stalls_Percent_6_Bucket_5: 10215
Critical_ROB_Stalls_Percent_6_Bucket_6: 0
Non-critical_ROB_Stalls_Percent_6_Bucket_6: 23520
Critical_ROB_Stalls_Percent_7_Bucket_0: 2732
Non-critical_ROB_Stalls_Percent_7_Bucket_0: 2325599
Critical_ROB_Stalls_Percent_7_Bucket_1: 67982
Non-critical_ROB_Stalls_Percent_7_Bucket_1: 651319
Critical_ROB_Stalls_Percent_7_Bucket_2: 27911
Non-critical_ROB_Stalls_Percent_7_Bucket_2: 216098
Critical_ROB_Stalls_Percent_7_Bucket_3: 3459
Non-critical_ROB_Stalls_Percent_7_Bucket_3: 54501
Critical_ROB_Stalls_Percent_7_Bucket_4: 2
Non-critical_ROB_Stalls_Percent_7_Bucket_4: 20038
Critical_ROB_Stalls_Percent_7_Bucket_5: 0
Non-critical_ROB_Stalls_Percent_7_Bucket_5: 10215
Critical_ROB_Stalls_Percent_7_Bucket_6: 0
Non-critical_ROB_Stalls_Percent_7_Bucket_6: 23520
Critical_ROB_Stalls_Percent_8_Bucket_0: 2732
Non-critical_ROB_Stalls_Percent_8_Bucket_0: 2325599
Critical_ROB_Stalls_Percent_8_Bucket_1: 67982
Non-critical_ROB_Stalls_Percent_8_Bucket_1: 651319
Critical_ROB_Stalls_Percent_8_Bucket_2: 27911
Non-critical_ROB_Stalls_Percent_8_Bucket_2: 216098
Critical_ROB_Stalls_Percent_8_Bucket_3: 3459
Non-critical_ROB_Stalls_Percent_8_Bucket_3: 54501
Critical_ROB_Stalls_Percent_8_Bucket_4: 2
Non-critical_ROB_Stalls_Percent_8_Bucket_4: 20038
Critical_ROB_Stalls_Percent_8_Bucket_5: 0
Non-critical_ROB_Stalls_Percent_8_Bucket_5: 10215
Critical_ROB_Stalls_Percent_8_Bucket_6: 0
Non-critical_ROB_Stalls_Percent_8_Bucket_6: 23520
Average ROB occupancy Load Stall Begin: 38.9903
Average ROB occupancy Load Stall End: 47.2569
Min ROB occupancy Load Stall Begin: 1
Max ROB occupancy Load Stall Begin: 352
Min ROB occupancy Load Stall End: 1
Max ROB occupancy Load Stall End: 352
Average ROB occupancy Critical Load Stall Begin: -nan
Average ROB occupancy Critical Load Stall End: -nan
Min ROB occupancy Critical Load Stall Begin: 400
Max ROB occupancy Critical Load Stall Begin: 0
Min ROB occupancy Critical Load Stall End: 400
Max ROB occupancy Critical Load Stall End: 0
 ROB Load Stall Begin Bucket Count 0: 2566428
 ROB Load Stall End Bucket Count 0: 2328331
 ROB Critical Load Stall Begin Bucket Count 0: 0
 ROB Critical Load Stall End Bucket Count 0: 0
 ROB Load Stall Begin Bucket Count 1: 567286
 ROB Load Stall End Bucket Count 1: 719301
 ROB Critical Load Stall Begin Bucket Count 1: 0
 ROB Critical Load Stall End Bucket Count 1: 0
 ROB Load Stall Begin Bucket Count 2: 179954
 ROB Load Stall End Bucket Count 2: 244009
 ROB Critical Load Stall Begin Bucket Count 2: 0
 ROB Critical Load Stall End Bucket Count 2: 0
 ROB Load Stall Begin Bucket Count 3: 41764
 ROB Load Stall End Bucket Count 3: 57960
 ROB Critical Load Stall Begin Bucket Count 3: 0
 ROB Critical Load Stall End Bucket Count 3: 0
 ROB Load Stall Begin Bucket Count 4: 16261
 ROB Load Stall End Bucket Count 4: 20040
 ROB Critical Load Stall Begin Bucket Count 4: 0
 ROB Critical Load Stall End Bucket Count 4: 0
 ROB Load Stall Begin Bucket Count 5: 9312
 ROB Load Stall End Bucket Count 5: 10215
 ROB Critical Load Stall Begin Bucket Count 5: 0
 ROB Critical Load Stall End Bucket Count 5: 0
 ROB Load Stall Begin Bucket Count 6: 22371
 ROB Load Stall End Bucket Count 6: 23520
 ROB Critical Load Stall Begin Bucket Count 6: 0
 ROB Critical Load Stall End Bucket Count 6: 0
PIST Tag Read Accesses: 0
PIST Read Accesses: 0
PIST Tag Write Accesses: 0
PIST Write Accesses: 0
Criticality detector called times: 0
Max global_stall_cycles_count: 0
Threshold Modified: 0 times, factor: 0
ITLB TOTAL     ACCESS:    9881519  HIT:    9279641  MISS:     601878  HIT %:    93.9091  MISS %:    6.09095   MPKI: 12.0376
ITLB LOAD TRANSLATION ACCESS:    8072207  HIT:    7983307  MISS:      88900  HIT %:    98.8987  MISS %:    1.10131   MPKI: 1.778
ITLB TRANSLATION FROM L1D PREFETCHER ACCESS:    1809312  HIT:    1296334  MISS:     512978  HIT %:    71.6479  MISS %:    28.3521   MPKI: 10.2596
ITLB PREFETCH  REQUESTED:          0  ISSUED:          0  USEFUL:     406170  USELESS:     106814
ITLB USEFUL LOAD PREFETCHES:     406170 PREFETCH ISSUED TO LOWER LEVEL:          0  ACCURACY: inf
ITLB TIMELY PREFETCHES:     406170 LATE PREFETCHES: 370 DROPPED PREFETCHES: 3289
ITLB PREFETCHES SAME FILL-ORIGIN LEVEL: 0 DIFFERENT FILL-ORIGIN LEVEL: 0
ITLB AVERAGE MISS LATENCY: 29741.5 cycles
ITLB RQ	ACCESS:   14497197	FORWARD:          0	MERGED:    4571703	TO_CACHE:    9925494

DTLB TOTAL     ACCESS:   11325345  HIT:   10861133  MISS:     464212  HIT %:    95.9011  MISS %:    4.09888   MPKI: 9.28424
DTLB LOAD TRANSLATION ACCESS:   11325345  HIT:   10861133  MISS:     464212  HIT %:    95.9011  MISS %:    4.09888   MPKI: 9.28424
DTLB PREFETCH  REQUESTED:          0  ISSUED:          0  USEFUL:          0  USELESS:          0
DTLB USEFUL LOAD PREFETCHES:          0 PREFETCH ISSUED TO LOWER LEVEL:          0  ACCURACY: -nan
DTLB TIMELY PREFETCHES:          0 LATE PREFETCHES: 0 DROPPED PREFETCHES: 0
DTLB PREFETCHES SAME FILL-ORIGIN LEVEL: 0 DIFFERENT FILL-ORIGIN LEVEL: 0
DTLB AVERAGE MISS LATENCY: 9.39727 cycles
DTLB RQ	ACCESS:   14773452	FORWARD:          0	MERGED:    3421263	TO_CACHE:   11352189

STLB TOTAL     ACCESS:    1066090  HIT:    1063087  MISS:       3003  HIT %:    99.7183  MISS %:   0.281684   MPKI: 0.06006
STLB LOAD TRANSLATION ACCESS:     552742  HIT:     550005  MISS:       2737  HIT %:    99.5048  MISS %:   0.495168   MPKI: 0.05474
STLB TRANSLATION FROM L1D PREFETCHER ACCESS:     513348  HIT:     513082  MISS:        266  HIT %:    99.9482  MISS %:  0.0518167   MPKI: 0.00532
STLB PREFETCH  REQUESTED:          0  ISSUED:          0  USEFUL:        204  USELESS:         60
STLB USEFUL LOAD PREFETCHES:        204 PREFETCH ISSUED TO LOWER LEVEL:          0  ACCURACY: inf
STLB TIMELY PREFETCHES:        204 LATE PREFETCHES: 0 DROPPED PREFETCHES: 3289
STLB PREFETCHES SAME FILL-ORIGIN LEVEL: 0 DIFFERENT FILL-ORIGIN LEVEL: 0
STLB AVERAGE MISS LATENCY: 66.0413 cycles
STLB RQ	ACCESS:    1069379	FORWARD:          0	MERGED:          0	TO_CACHE:    1069379

STLB Hit, L1D data hit: 0
STLB Hit, L2C data hit: 0
STLB Hit, LLC data hit: 0
STLB Hit, LLC data miss: 0
STLB STLB hints to L2: 0
L1D TOTAL     ACCESS:   14273017  HIT:   13283227  MISS:     989790  HIT %:    93.0653  MISS %:    6.93469   MPKI: 19.7958
L1D LOAD      ACCESS:    8030253  HIT:    7320702  MISS:     709551  HIT %:     91.164  MISS %:    8.83597   MPKI: 14.191
L1D RFO       ACCESS:    6242764  HIT:    5962525  MISS:     280239  HIT %:     95.511  MISS %:    4.48902   MPKI: 5.60478
L1D PREFETCH  REQUESTED:          0  ISSUED:          0  USEFUL:          0  USELESS:          0
L1D USEFUL LOAD PREFETCHES:          0 PREFETCH ISSUED TO LOWER LEVEL:          0  ACCURACY: -nan
L1D TIMELY PREFETCHES:          0 LATE PREFETCHES: 0 DROPPED PREFETCHES: 0
L1D PREFETCHES SAME FILL-ORIGIN LEVEL: 0 DIFFERENT FILL-ORIGIN LEVEL: 0
L1D AVERAGE MISS LATENCY: 27.03 cycles
L1D RQ	ACCESS:   11544321	FORWARD:          0	MERGED:    3346428	TO_CACHE:    8068946
L1D WQ	ACCESS:    6771059	FORWARD:     128947	MERGED:      66553	TO_CACHE:    6704506

L1D UNIQUE REGIONS ACCESSED: 0
L1D REGIONS CONFLICTS: 0
L1D Cross Page Prefetch Requests: 0
L1D Same Page Prefetch Requests: 0
L1D ROI Sum of L1D PQ occupancy: 0
L1D PREFETCHES PUSHED FROM L2C: 0
L1I TOTAL     ACCESS:   14351344  HIT:   10610708  MISS:    3740636  HIT %:    73.9353  MISS %:    26.0647   MPKI: 74.8127
L1I LOAD      ACCESS:    9399939  HIT:    9120303  MISS:     279636  HIT %:    97.0251  MISS %:    2.97487   MPKI: 5.59272
L1I PREFETCH  ACCESS:    4951405  HIT:    1490405  MISS:    3461000  HIT %:    30.1006  MISS %:    69.8994   MPKI: 69.22
L1I PREFETCH  REQUESTED:    5202304  ISSUED:    5189103  USEFUL:    2340638  USELESS:    1120373
L1I USEFUL LOAD PREFETCHES:    2340638 PREFETCH ISSUED TO LOWER LEVEL:    3491346  ACCURACY: 67.0411
L1I TIMELY PREFETCHES:    2340638 LATE PREFETCHES: 29390 DROPPED PREFETCHES: 8418
L1I PREFETCHES SAME FILL-ORIGIN LEVEL: 3491346 DIFFERENT FILL-ORIGIN LEVEL: 0
L1I AVERAGE MISS LATENCY: 411926 cycles
L1I RQ	ACCESS:   13465930	FORWARD:          0	MERGED:    4042068	TO_CACHE:    9423862
L1I PQ	ACCESS:    5189103	FORWARD:          0	MERGED:     115768	TO_CACHE:    5073335

BTB TOTAL     ACCESS:    6210935  HIT:    4468586  MISS:    1742349  HIT %:    71.9471  MISS %:    28.0529   MPKI: 34.847
BTB BRANCH_DIRECT_JUMP	ACCESS:     566815  HIT:     417590  MISS:     149225
BTB BRANCH_INDIRECT	ACCESS:     197171  HIT:     163808  MISS:      33363
BTB BRANCH_CONDITIONAL	ACCESS:    3373174  HIT:    2911628  MISS:     461546
BTB BRANCH_DIRECT_CALL	ACCESS:     876399  HIT:     531835  MISS:     344564
BTB BRANCH_INDIRECT_CALL	ACCESS:     160491  HIT:      90228  MISS:      70263
BTB BRANCH_RETURN	ACCESS:    1036885  HIT:     353497  MISS:     683388
BTB BRANCH_OTHER ACCESS:          0  HIT:          0  MISS:          0

L2C TOTAL     ACCESS:    5314783  HIT:    4712671  MISS:     602112  HIT %:     88.671  MISS %:     11.329   MPKI: 12.0422
L2C LOAD      ACCESS:     959772  HIT:     803556  MISS:     156216  HIT %:    83.7236  MISS %:    16.2764   MPKI: 3.12432
L2C DATA LOAD MPKI: 2.42666
L2C INSTRUCTION LOAD MPKI: 0.69766
L2C RFO       ACCESS:     280236  HIT:     200143  MISS:      80093  HIT %:    71.4194  MISS %:    28.5806   MPKI: 1.60186
L2C PREFETCH  ACCESS:    3599035  HIT:    3265592  MISS:     333443  HIT %:    90.7352  MISS %:    9.26479   MPKI: 6.66886
L2C DATA PREFETCH MPKI: 0.88992
L2C INSTRUCTION PREFETCH MPKI: 5.77894
L2C WRITEBACK ACCESS:     466896  HIT:     436760  MISS:      30136  HIT %:    93.5455  MISS %:    6.45454   MPKI: 0.60272
L2C LOAD TRANSLATION ACCESS:       3007  HIT:        969  MISS:       2038  HIT %:    32.2248  MISS %:    67.7752   MPKI: 0.04076
L2C TRANSLATION FROM L1D PREFETCHER ACCESS:       5837  HIT:       5651  MISS:        186  HIT %:    96.8134  MISS %:    3.18657   MPKI: 0.00372
L2C PREFETCH  REQUESTED:     113231  ISSUED:     113231  USEFUL:      32297  USELESS:     301105
L2C USEFUL LOAD PREFETCHES:      32297 PREFETCH ISSUED TO LOWER LEVEL:     336473  ACCURACY: 9.59869
L2C TIMELY PREFETCHES:      32297 LATE PREFETCHES: 3030 DROPPED PREFETCHES: 0
L2C PREFETCHES SAME FILL-ORIGIN LEVEL: 47526 DIFFERENT FILL-ORIGIN LEVEL: 0
L2C AVERAGE MISS LATENCY: 42.426 cycles
L2C RQ	ACCESS:    1248880	FORWARD:          0	MERGED:          0	TO_CACHE:    1248852
L2C WQ	ACCESS:     466896	FORWARD:         28	MERGED:          0	TO_CACHE:     466896
L2C PQ	ACCESS:    3603626	FORWARD:          0	MERGED:          0	TO_CACHE:    3603626

L2C Instructions Evicting Data 140574
L2C Translations Evicting Data 1294
L2C Data Evicting Data 121766
L2C Instructions Evicting Instructions 182370
L2C Translations Evicting Instructions 906
L2C Data Evicting Instructions 122861
L2C Instructions Evicting Translations 886
L2C Translations Evicting Translations 24
L2C Data Evicting Translations 1295
L2C Dense regions hint from L2: 0
PSCL5 TOTAL     ACCESS:       6292  HIT:       6292  MISS:          0  HIT %:        100  MISS %:          0   MPKI: 0
PSCL5 LOAD TRANSLATION ACCESS:       2737  HIT:       2737  MISS:          0  HIT %:        100  MISS %:          0   MPKI: 0
PSCL5 TRANSLATION FROM L1D PREFETCHER ACCESS:       3555  HIT:       3555  MISS:          0  HIT %:        100  MISS %:          0   MPKI: 0
PSCL5 PREFETCH  REQUESTED:          0  ISSUED:          0  USEFUL:          0  USELESS:          0
PSCL5 USEFUL LOAD PREFETCHES:          0 PREFETCH ISSUED TO LOWER LEVEL:          0  ACCURACY: -nan
PSCL5 TIMELY PREFETCHES:          0 LATE PREFETCHES: 0 DROPPED PREFETCHES: 0
PSCL5 PREFETCHES SAME FILL-ORIGIN LEVEL: 0 DIFFERENT FILL-ORIGIN LEVEL: 0

PSCL4 TOTAL     ACCESS:       6198  HIT:       6192  MISS:          6  HIT %:    99.9032  MISS %:  0.0968054   MPKI: 0.00012
PSCL4 LOAD TRANSLATION ACCESS:       2646  HIT:       2640  MISS:          6  HIT %:    99.7732  MISS %:   0.226757   MPKI: 0.00012
PSCL4 TRANSLATION FROM L1D PREFETCHER ACCESS:       3552  HIT:       3552  MISS:          0  HIT %:        100  MISS %:          0   MPKI: 0
PSCL4 PREFETCH  REQUESTED:          0  ISSUED:          0  USEFUL:          0  USELESS:          0
PSCL4 USEFUL LOAD PREFETCHES:          0 PREFETCH ISSUED TO LOWER LEVEL:          0  ACCURACY: -nan
PSCL4 TIMELY PREFETCHES:          0 LATE PREFETCHES: 0 DROPPED PREFETCHES: 0
PSCL4 PREFETCHES SAME FILL-ORIGIN LEVEL: 0 DIFFERENT FILL-ORIGIN LEVEL: 0

PSCL3 TOTAL     ACCESS:       6288  HIT:       6282  MISS:          6  HIT %:    99.9046  MISS %:  0.0954198   MPKI: 0.00012
PSCL3 LOAD TRANSLATION ACCESS:       2736  HIT:       2730  MISS:          6  HIT %:    99.7807  MISS %:   0.219298   MPKI: 0.00012
PSCL3 TRANSLATION FROM L1D PREFETCHER ACCESS:       3552  HIT:       3552  MISS:          0  HIT %:        100  MISS %:          0   MPKI: 0
PSCL3 PREFETCH  REQUESTED:          0  ISSUED:          0  USEFUL:          0  USELESS:          0
PSCL3 USEFUL LOAD PREFETCHES:          0 PREFETCH ISSUED TO LOWER LEVEL:          0  ACCURACY: -nan
PSCL3 TIMELY PREFETCHES:          0 LATE PREFETCHES: 0 DROPPED PREFETCHES: 0
PSCL3 PREFETCHES SAME FILL-ORIGIN LEVEL: 0 DIFFERENT FILL-ORIGIN LEVEL: 0

PSCL2 TOTAL     ACCESS:       4050  HIT:       3755  MISS:        295  HIT %:     92.716  MISS %:    7.28395   MPKI: 0.0059
PSCL2 LOAD TRANSLATION ACCESS:       2771  HIT:       2476  MISS:        295  HIT %:     89.354  MISS %:     10.646   MPKI: 0.0059
PSCL2 TRANSLATION FROM L1D PREFETCHER ACCESS:       1279  HIT:       1279  MISS:          0  HIT %:        100  MISS %:          0   MPKI: 0
PSCL2 PREFETCH  REQUESTED:          0  ISSUED:          0  USEFUL:          0  USELESS:          0
PSCL2 USEFUL LOAD PREFETCHES:          0 PREFETCH ISSUED TO LOWER LEVEL:          0  ACCURACY: -nan
PSCL2 TIMELY PREFETCHES:          0 LATE PREFETCHES: 0 DROPPED PREFETCHES: 0
PSCL2 PREFETCHES SAME FILL-ORIGIN LEVEL: 0 DIFFERENT FILL-ORIGIN LEVEL: 0

LLC TOTAL     ACCESS:     685150  HIT:     641563  MISS:      43587  HIT %:    93.6383  MISS %:    6.36167   MPKI: 0.87174
LLC LOAD      ACCESS:     153190  HIT:     144828  MISS:       8362  HIT %:    94.5414  MISS %:    5.45858   MPKI: 0.16724
LLC RFO       ACCESS:      80087  HIT:      57543  MISS:      22544  HIT %:    71.8506  MISS %:    28.1494   MPKI: 0.45088
LLC PREFETCH  ACCESS:     336473  HIT:     324438  MISS:      12035  HIT %:    96.4232  MISS %:    3.57681   MPKI: 0.2407
LLC WRITEBACK ACCESS:     113176  HIT:     112728  MISS:        448  HIT %:    99.6042  MISS %:   0.395844   MPKI: 0.00896
LLC LOAD TRANSLATION ACCESS:       2038  HIT:       1855  MISS:        183  HIT %:    91.0206  MISS %:    8.97939   MPKI: 0.00366
LLC TRANSLATION FROM L1D PREFETCHER ACCESS:        186  HIT:        171  MISS:         15  HIT %:    91.9355  MISS %:    8.06452   MPKI: 0.0003
LLC PREFETCH  REQUESTED:          0  ISSUED:          0  USEFUL:        509  USELESS:       6932
LLC USEFUL LOAD PREFETCHES:        509 PREFETCH ISSUED TO LOWER LEVEL:      12035  ACCURACY: 4.22933
LLC TIMELY PREFETCHES:        509 LATE PREFETCHES: 0 DROPPED PREFETCHES: 0
LLC PREFETCHES SAME FILL-ORIGIN LEVEL: 0 DIFFERENT FILL-ORIGIN LEVEL: 0
LLC AVERAGE MISS LATENCY: 195.541 cycles
LLC RQ	ACCESS:     235503	FORWARD:          0	MERGED:          0	TO_CACHE:     235501
LLC WQ	ACCESS:     113176	FORWARD:          2	MERGED:          0	TO_CACHE:     113176
LLC PQ	ACCESS:     336473	FORWARD:          0	MERGED:          0	TO_CACHE:     336473

LLC Dense regions hint to LLC: 0

RAW hits: 925750
Loads Generated: 12470071
Loads sent to L1D: 11544321
Stores Generated: 6771037
Stores sent to L1D: 6771059
Major fault: 0 Minor fault: 2466
Allocated PAGES: 2466
I-Shadow cache 408 bytes
Touched + WorthPF tables 6144 bytes 
MMA filter 174 bytes 
FNL filter 272 bytes 
TOTAL PREFETCHER STORAGE SIZE: 25174 bytes
CPU 0 L1I next line prefetcher final stats
[Bingo] PHT Access: 38723
[Bingo] PHT Hit PC+Addr: 21497
[Bingo] PHT Hit PC+Offs: 9630
[Bingo] PHT Miss: 7596
[Bingo] Prefetch PC+Addr: 0
[Bingo] Prefetch PC+Offs: 0
[Bingo] Useful PC+Addr: 0
[Bingo] Useful PC+Offs: 0
[Bingo] Useless PC+Addr: 0
[Bingo] Useless PC+Offs: 0
[Bingo] L1 Prefetch per Region: 0
[Bingo] L2 Prefetch per Region: 4.63938
[Bingo] L3 Prefetch per Region: 0
[Bingo] No Prefetch per Region: 27.3606
[Bingo] Number of Voters Mean: 7.67342
[Bingo] Number of Voters SD: 5.20311
PHT read accesses: 168787
PHT write accesses: 11707
AT read accesses: 133027
AT write accesses: 133009
FT read accesses: 67214
FT write accesses: 38723
PS read accesses: 66924
PS write accesses: 31127
PHT tag read accesses: 553084
PHT tag write accesses: 33204
AT tag read accesses: 12727365
AT tag write accesses: 144716
FT tag read accesses: 11742626
FT tag write accesses: 87391
PS tag read accesses: 3699615
PS tag write accesses: 98033

DRAM Statistics
 CHANNEL 0
 RQ ROW_BUFFER_HIT:      16164  ROW_BUFFER_MISS:      26956
 DBUS_CONGESTED:          2
 WQ ROW_BUFFER_HIT:       2701  ROW_BUFFER_MISS:      22893  FULL:          0

 AVG_CONGESTED_CYCLE: 4
 All warmup complete: 2
Channel 0 Bank busy for read cycles: 0
Channel 0 Bank busy for write cycles: 0
Channel 0
Rank 0
0banks busy for read cycles: 75127353
0banks busy for write cycles: 4737
1banks busy for read cycles: 1168980
1banks busy for write cycles: 601110
2banks busy for read cycles: 255508
2banks busy for write cycles: 190403
3banks busy for read cycles: 103266
3banks busy for write cycles: 112463
4banks busy for read cycles: 77303
4banks busy for write cycles: 81115
5banks busy for read cycles: 68543
5banks busy for write cycles: 66940
6banks busy for read cycles: 63830
6banks busy for write cycles: 71968
7banks busy for read cycles: 69241
7banks busy for write cycles: 83440
8banks busy for read cycles: 173734
8banks busy for write cycles: 195647

CPU 0 Branch Prediction Accuracy: 99.7477% MPKI: 0.46156 Average ROB Occupancy at Mispredict: 71.4594
Branch types
NOT_BRANCH: 40853605 81.7072%
BRANCH_DIRECT_JUMP: 566815 1.13363%
BRANCH_INDIRECT: 197171 0.394342%
BRANCH_CONDITIONAL: 6308406 12.6168%
BRANCH_DIRECT_CALL: 876399 1.7528%
BRANCH_INDIRECT_CALL: 160491 0.320982%
BRANCH_RETURN: 1036885 2.07377%
BRANCH_OTHER: 0 0%

DRAM PAGES: 1048576
Allocated PAGES: 2466
