
*** ChampSim Multicore Out-of-Order Simulator ***

Warmup Instructions: 50000000
Simulation Instructions: 50000000
Number of CPUs: 1
LLC sets: 2048
LLC ways: 16
Off-chip DRAM Size: 4096 MB Channels: 1 Width: 64-bit Data Rate: 6400 MT/s
CPU 0 runs ../IPC-traces//server_011.champsimtrace.xz
.xz
NUM_OF_IPS_IN_CRITICAL_IP_TRAINING: 64
NUM_OF_CRITICAL_IP_TRAINING_TABLE_WAYS: 2
NUM_OF_CRITICAL_IP_TRAINING_TABLE_SETS: 32
WOBBLY_CRITICAL_IP_CACHE_SETS: 32
WOBBLY_CRITICAL_IP_CACHE_WAYS: 4
BTB has LRU replacement policy
ITLB has LRU replacement policy
DTLB has LRU replacement policy
STLB has LRU replacement policy
CPU 0 L1I next line prefetcher
L1I has LRU replacement policy
IP Table Entries: 64
L1D has LRU replacement policy
Initialize SRRIP state for L2C
Initialize DRRIP state for LLC
Heartbeat CPU 0 instructions: 10000002 cycles: 2767049 heartbeat IPC: 3.61396 cumulative IPC: 3.61396 (Simulation time: 0 hr 3 min 10 sec) 
Heartbeat CPU 0 instructions: 20000002 cycles: 5533248 heartbeat IPC: 3.61507 cumulative IPC: 3.61451 (Simulation time: 0 hr 5 min 39 sec) 
Heartbeat CPU 0 instructions: 30000001 cycles: 8318709 heartbeat IPC: 3.59007 cumulative IPC: 3.60633 (Simulation time: 0 hr 8 min 3 sec) 
Heartbeat CPU 0 instructions: 40000003 cycles: 11080414 heartbeat IPC: 3.62095 cumulative IPC: 3.60997 (Simulation time: 0 hr 10 min 11 sec) 
Heartbeat CPU 0 instructions: 50000002 cycles: 13845019 heartbeat IPC: 3.61715 cumulative IPC: 3.61141 (Simulation time: 0 hr 12 min 11 sec) 

Warmup complete CPU 0 instructions: 50000002 cycles: 13845019 (Simulation time: 0 hr 12 min 11 sec) 

% increase in all ip prefetch 382.765
% increase in all ip prefetch 11.7334
% increase in all ip prefetch 9.11355
% increase in all ip prefetch -0.0335845
Heartbeat CPU 0 instructions: 60000002 cycles: 28190354 heartbeat IPC: 0.697091 cumulative IPC: 0.697091 (Simulation time: 0 hr 14 min 49 sec) 
Heartbeat CPU 0 instructions: 70000001 cycles: 43508662 heartbeat IPC: 0.652814 cumulative IPC: 0.674226 (Simulation time: 0 hr 17 min 24 sec) 
Heartbeat CPU 0 instructions: 80000001 cycles: 60584362 heartbeat IPC: 0.585628 cumulative IPC: 0.641858 (Simulation time: 0 hr 19 min 52 sec) 
Heartbeat CPU 0 instructions: 90000001 cycles: 75451340 heartbeat IPC: 0.672632 cumulative IPC: 0.649284 (Simulation time: 0 hr 22 min 25 sec) 
Heartbeat CPU 0 instructions: 100000000 cycles: 89955241 heartbeat IPC: 0.68947 cumulative IPC: 0.656942 (Simulation time: 0 hr 24 min 54 sec) 
Finished CPU 0 instructions: 50000000 cycles: 76110237 cumulative IPC: 0.656942 (Simulation time: 0 hr 24 min 54 sec) 

ChampSim completed all CPUs

Region of Interest Statistics

CPU 0 cumulative IPC: 0.656942 instructions: 50000000 cycles: 76110237

CPU 0 Average Load ROB stall cycles: 2.01164e+07
CPU 0 Fraction of times ROB stalled by Loads: 38.9305
CPU 0 Percentage of Load stall cycles in Total stall cycles: 2.39303e+08
Issued all: 27639861
Issued LT all: 21580341
rob_not_full_when_issued_lt_all: 20772511
Issued LT one: 17077407
rob_not_full_when_issued_lt_one: 16363472
critical_ip_candidate_identification_operations: 5722356
critical_ip_candidate_identification_operation_per_cycle: 0.0751851
 Total stall cycles: 61781273
 Total load stall cycles: 147844203917362
Unique Load IPs: 66263
CPU 0 NUM of IPS identified critical: 58
CPU 0 Num of Load IPs stalling ROB: 47061
Threshold modification factor: -3
Max PIST entries: 64
Min PIST entries: 0
Avg PIST entries: 32
Trouble in retire width: 0.892823
MaC = Marked as critical.
lt_50_percent_before_Mac: 33
gt_90_percent_before_Mac: 1
gt_75_percent_before_Mac: 11
gt_50_percent_before_Mac: 13
stall_proportion_bin_same_before_after: 0
stall_proportion_bin_lower_before_after: 0
stall_proportion_bin_upper_before_after: 0
average_stall_proportion_before: 0.0616991
average_stall_proportion_after: 0.0648102
Critical IP stalls, total frequency: 108097
Non-critical IP stalls, total frequency: 2753081
Total Freq all stalling IPs: 2861178
Critical_IP_Detector_Accuracy_70: 0.965517
Critical_IP_Detector_Accuracy_80: 0.965517
Critical_IP_Detector_Accuracy_90: 1
Critical_IP_Detector_Coverage_70: 0.0239112
Critical_IP_Detector_Coverage_80: 0.0117155
Critical_IP_Detector_Coverage_90: 0.00587461
stat_90_percent_critical_ip_stalls_freq: 2575068
stat_90_percent_non_critical_ip_stalls_freq: 286110
AVERAGE_ROB_Occupancy_90_Percent_Critical_IP_Stalls: 62.9567
AVERAGE_ROB_Occupancy_90_Percent_Non_Critical_IP_Stalls: 43.3484
Critical_IP_ROB_Stalls_Bucket_0: 46547
Non-critical_IP_ROB_Stalls_Bucket_0: 1582578
Critical_IP_ROB_Stalls_Bucket_1: 24014
Non-critical_IP_ROB_Stalls_Bucket_1: 741545
Critical_IP_ROB_Stalls_Bucket_2: 13357
Non-critical_IP_ROB_Stalls_Bucket_2: 261341
Critical_IP_ROB_Stalls_Bucket_3: 5657
Non-critical_IP_ROB_Stalls_Bucket_3: 81060
Critical_IP_ROB_Stalls_Bucket_4: 3165
Non-critical_IP_ROB_Stalls_Bucket_4: 37563
Critical_IP_ROB_Stalls_Bucket_5: 2310
Non-critical_IP_ROB_Stalls_Bucket_5: 19845
Critical_IP_ROB_Stalls_Bucket_6: 13047
Non-critical_IP_ROB_Stalls_Bucket_6: 29149
0 => IPs accounting for >50 percent of stalls, 1 => 55, 2 => 60, 3 => 65 and so on till 90.
percent50: 50.0135 num IPs:  603
percent55: 55.0161 num IPs: 858
percent60: 60.0028 num IPs: 1197
percent65: 65.0078 num IPs: 1665
percent70: 70.0055 num IPs: 2342
percent75: 75.0001 num IPs: 3351
percent80: 80.0015 num IPs: 4780
percent85: 85.0013 num IPs: 6886
percent90: 90.0002 num IPs: 9873
Critical_ROB_Stalls_Percent_0_Bucket_0: 731925
Non-critical_ROB_Stalls_Percent_0_Bucket_0: 897200
Critical_ROB_Stalls_Percent_0_Bucket_1: 448943
Non-critical_ROB_Stalls_Percent_0_Bucket_1: 316616
Critical_ROB_Stalls_Percent_0_Bucket_2: 165631
Non-critical_ROB_Stalls_Percent_0_Bucket_2: 109067
Critical_ROB_Stalls_Percent_0_Bucket_3: 40047
Non-critical_ROB_Stalls_Percent_0_Bucket_3: 46670
Critical_ROB_Stalls_Percent_0_Bucket_4: 17835
Non-critical_ROB_Stalls_Percent_0_Bucket_4: 22893
Critical_ROB_Stalls_Percent_0_Bucket_5: 7929
Non-critical_ROB_Stalls_Percent_0_Bucket_5: 14226
Critical_ROB_Stalls_Percent_0_Bucket_6: 18664
Non-critical_ROB_Stalls_Percent_0_Bucket_6: 23532
Critical_ROB_Stalls_Percent_1_Bucket_0: 801592
Non-critical_ROB_Stalls_Percent_1_Bucket_0: 827533
Critical_ROB_Stalls_Percent_1_Bucket_1: 496849
Non-critical_ROB_Stalls_Percent_1_Bucket_1: 268710
Critical_ROB_Stalls_Percent_1_Bucket_2: 179724
Non-critical_ROB_Stalls_Percent_1_Bucket_2: 94974
Critical_ROB_Stalls_Percent_1_Bucket_3: 44906
Non-critical_ROB_Stalls_Percent_1_Bucket_3: 41811
Critical_ROB_Stalls_Percent_1_Bucket_4: 20082
Non-critical_ROB_Stalls_Percent_1_Bucket_4: 20646
Critical_ROB_Stalls_Percent_1_Bucket_5: 9944
Non-critical_ROB_Stalls_Percent_1_Bucket_5: 12211
Critical_ROB_Stalls_Percent_1_Bucket_6: 21013
Non-critical_ROB_Stalls_Percent_1_Bucket_6: 21183
Critical_ROB_Stalls_Percent_2_Bucket_0: 876651
Non-critical_ROB_Stalls_Percent_2_Bucket_0: 752474
Critical_ROB_Stalls_Percent_2_Bucket_1: 537537
Non-critical_ROB_Stalls_Percent_2_Bucket_1: 228022
Critical_ROB_Stalls_Percent_2_Bucket_2: 192569
Non-critical_ROB_Stalls_Percent_2_Bucket_2: 82129
Critical_ROB_Stalls_Percent_2_Bucket_3: 50531
Non-critical_ROB_Stalls_Percent_2_Bucket_3: 36186
Critical_ROB_Stalls_Percent_2_Bucket_4: 23115
Non-critical_ROB_Stalls_Percent_2_Bucket_4: 17613
Critical_ROB_Stalls_Percent_2_Bucket_5: 12292
Non-critical_ROB_Stalls_Percent_2_Bucket_5: 9863
Critical_ROB_Stalls_Percent_2_Bucket_6: 24092
Non-critical_ROB_Stalls_Percent_2_Bucket_6: 18104
Critical_ROB_Stalls_Percent_3_Bucket_0: 963554
Non-critical_ROB_Stalls_Percent_3_Bucket_0: 665571
Critical_ROB_Stalls_Percent_3_Bucket_1: 572078
Non-critical_ROB_Stalls_Percent_3_Bucket_1: 193481
Critical_ROB_Stalls_Percent_3_Bucket_2: 202862
Non-critical_ROB_Stalls_Percent_3_Bucket_2: 71836
Critical_ROB_Stalls_Percent_3_Bucket_3: 54854
Non-critical_ROB_Stalls_Percent_3_Bucket_3: 31863
Critical_ROB_Stalls_Percent_3_Bucket_4: 25564
Non-critical_ROB_Stalls_Percent_3_Bucket_4: 15164
Critical_ROB_Stalls_Percent_3_Bucket_5: 14308
Non-critical_ROB_Stalls_Percent_3_Bucket_5: 7847
Critical_ROB_Stalls_Percent_3_Bucket_6: 26768
Non-critical_ROB_Stalls_Percent_3_Bucket_6: 15428
Critical_ROB_Stalls_Percent_4_Bucket_0: 1048548
Non-critical_ROB_Stalls_Percent_4_Bucket_0: 580577
Critical_ROB_Stalls_Percent_4_Bucket_1: 607556
Non-critical_ROB_Stalls_Percent_4_Bucket_1: 158003
Critical_ROB_Stalls_Percent_4_Bucket_2: 215136
Non-critical_ROB_Stalls_Percent_4_Bucket_2: 59562
Critical_ROB_Stalls_Percent_4_Bucket_3: 59727
Non-critical_ROB_Stalls_Percent_4_Bucket_3: 26990
Critical_ROB_Stalls_Percent_4_Bucket_4: 28207
Non-critical_ROB_Stalls_Percent_4_Bucket_4: 12521
Critical_ROB_Stalls_Percent_4_Bucket_5: 15440
Non-critical_ROB_Stalls_Percent_4_Bucket_5: 6715
Critical_ROB_Stalls_Percent_4_Bucket_6: 28370
Non-critical_ROB_Stalls_Percent_4_Bucket_6: 13826
Critical_ROB_Stalls_Percent_5_Bucket_0: 1140437
Non-critical_ROB_Stalls_Percent_5_Bucket_0: 488688
Critical_ROB_Stalls_Percent_5_Bucket_1: 640170
Non-critical_ROB_Stalls_Percent_5_Bucket_1: 125389
Critical_ROB_Stalls_Percent_5_Bucket_2: 224885
Non-critical_ROB_Stalls_Percent_5_Bucket_2: 49813
Critical_ROB_Stalls_Percent_5_Bucket_3: 63841
Non-critical_ROB_Stalls_Percent_5_Bucket_3: 22876
Critical_ROB_Stalls_Percent_5_Bucket_4: 30437
Non-critical_ROB_Stalls_Percent_5_Bucket_4: 10291
Critical_ROB_Stalls_Percent_5_Bucket_5: 16493
Non-critical_ROB_Stalls_Percent_5_Bucket_5: 5662
Critical_ROB_Stalls_Percent_5_Bucket_6: 29621
Non-critical_ROB_Stalls_Percent_5_Bucket_6: 12575
Critical_ROB_Stalls_Percent_6_Bucket_0: 1227063
Non-critical_ROB_Stalls_Percent_6_Bucket_0: 402062
Critical_ROB_Stalls_Percent_6_Bucket_1: 673973
Non-critical_ROB_Stalls_Percent_6_Bucket_1: 91586
Critical_ROB_Stalls_Percent_6_Bucket_2: 237055
Non-critical_ROB_Stalls_Percent_6_Bucket_2: 37643
Critical_ROB_Stalls_Percent_6_Bucket_3: 68943
Non-critical_ROB_Stalls_Percent_6_Bucket_3: 17774
Critical_ROB_Stalls_Percent_6_Bucket_4: 33137
Non-critical_ROB_Stalls_Percent_6_Bucket_4: 7591
Critical_ROB_Stalls_Percent_6_Bucket_5: 17543
Non-critical_ROB_Stalls_Percent_6_Bucket_5: 4612
Critical_ROB_Stalls_Percent_6_Bucket_6: 31267
Non-critical_ROB_Stalls_Percent_6_Bucket_6: 10929
Critical_ROB_Stalls_Percent_7_Bucket_0: 1319161
Non-critical_ROB_Stalls_Percent_7_Bucket_0: 309964
Critical_ROB_Stalls_Percent_7_Bucket_1: 699379
Non-critical_ROB_Stalls_Percent_7_Bucket_1: 66180
Critical_ROB_Stalls_Percent_7_Bucket_2: 247161
Non-critical_ROB_Stalls_Percent_7_Bucket_2: 27537
Critical_ROB_Stalls_Percent_7_Bucket_3: 73865
Non-critical_ROB_Stalls_Percent_7_Bucket_3: 12852
Critical_ROB_Stalls_Percent_7_Bucket_4: 35656
Non-critical_ROB_Stalls_Percent_7_Bucket_4: 5072
Critical_ROB_Stalls_Percent_7_Bucket_5: 19252
Non-critical_ROB_Stalls_Percent_7_Bucket_5: 2903
Critical_ROB_Stalls_Percent_7_Bucket_6: 37575
Non-critical_ROB_Stalls_Percent_7_Bucket_6: 4621
Critical_ROB_Stalls_Percent_8_Bucket_0: 1415995
Non-critical_ROB_Stalls_Percent_8_Bucket_0: 213130
Critical_ROB_Stalls_Percent_8_Bucket_1: 725014
Non-critical_ROB_Stalls_Percent_8_Bucket_1: 40545
Critical_ROB_Stalls_Percent_8_Bucket_2: 257432
Non-critical_ROB_Stalls_Percent_8_Bucket_2: 17266
Critical_ROB_Stalls_Percent_8_Bucket_3: 79145
Non-critical_ROB_Stalls_Percent_8_Bucket_3: 7572
Critical_ROB_Stalls_Percent_8_Bucket_4: 37472
Non-critical_ROB_Stalls_Percent_8_Bucket_4: 3256
Critical_ROB_Stalls_Percent_8_Bucket_5: 20342
Non-critical_ROB_Stalls_Percent_8_Bucket_5: 1813
Critical_ROB_Stalls_Percent_8_Bucket_6: 39668
Non-critical_ROB_Stalls_Percent_8_Bucket_6: 2528
Average ROB occupancy Load Stall Begin: 50.3362
Average ROB occupancy Load Stall End: 60.996
Min ROB occupancy Load Stall Begin: 1
Max ROB occupancy Load Stall Begin: 352
Min ROB occupancy Load Stall End: 1
Max ROB occupancy Load Stall End: 352
Average ROB occupancy Critical Load Stall Begin: 109.561
Average ROB occupancy Critical Load Stall End: 117.778
Min ROB occupancy Critical Load Stall Begin: 2
Max ROB occupancy Critical Load Stall Begin: 352
Min ROB occupancy Critical Load Stall End: 2
Max ROB occupancy Critical Load Stall End: 352
 ROB Load Stall Begin Bucket Count 0: 1924920
 ROB Load Stall End Bucket Count 0: 1629125
 ROB Critical Load Stall Begin Bucket Count 0: 37816
 ROB Critical Load Stall End Bucket Count 0: 31792
 ROB Load Stall Begin Bucket Count 1: 578169
 ROB Load Stall End Bucket Count 1: 765559
 ROB Critical Load Stall Begin Bucket Count 1: 14021
 ROB Critical Load Stall End Bucket Count 1: 17889
 ROB Load Stall Begin Bucket Count 2: 208188
 ROB Load Stall End Bucket Count 2: 274698
 ROB Critical Load Stall Begin Bucket Count 2: 9402
 ROB Critical Load Stall End Bucket Count 2: 10411
 ROB Load Stall Begin Bucket Count 3: 63727
 ROB Load Stall End Bucket Count 3: 86717
 ROB Critical Load Stall Begin Bucket Count 3: 4049
 ROB Critical Load Stall End Bucket Count 3: 4607
 ROB Load Stall Begin Bucket Count 4: 31474
 ROB Load Stall End Bucket Count 4: 40728
 ROB Critical Load Stall Begin Bucket Count 4: 2526
 ROB Critical Load Stall End Bucket Count 4: 2729
 ROB Load Stall Begin Bucket Count 5: 18844
 ROB Load Stall End Bucket Count 5: 22155
 ROB Critical Load Stall Begin Bucket Count 5: 1965
 ROB Critical Load Stall End Bucket Count 5: 2026
 ROB Load Stall Begin Bucket Count 6: 35856
 ROB Load Stall End Bucket Count 6: 42196
 ROB Critical Load Stall Begin Bucket Count 6: 11023
 ROB Critical Load Stall End Bucket Count 6: 11348
PIST Tag Read Accesses: 4263624
PIST Read Accesses: 2131812
PIST Tag Write Accesses: 4263624
PIST Write Accesses: 2131812
Criticality detector called times: 2780376
Max global_stall_cycles_count: 3434938
Threshold Modified: 3 times, factor: -3
Sturdy critical IP cache stats: 
 Unused entries: 0
CIC Tag Read Accesses: 0
CIC Read Accesses: 0
CIC Tag Write Accesses: 0
CIC Write Accesses: 0
Wobbly critical IP cache stats: 
 Unused entries: 70
CIC Tag Read Accesses: 71348850
CIC Read Accesses: 0
CIC Tag Write Accesses: 2023
CIC Write Accesses: 0
ITLB TOTAL     ACCESS:    9075184  HIT:    8852859  MISS:     222325  HIT %:    97.5502  MISS %:    2.44981   MPKI: 4.4465
ITLB LOAD TRANSLATION ACCESS:    7872648  HIT:    7796695  MISS:      75953  HIT %:    99.0352  MISS %:   0.964771   MPKI: 1.51906
ITLB TRANSLATION FROM L1D PREFETCHER ACCESS:    1202536  HIT:    1056164  MISS:     146372  HIT %:    87.8281  MISS %:    12.1719   MPKI: 2.92744
ITLBprefetch_cycle_count: 0 prefetches_per_prefetch_cycle: -nan
ITLB PREFETCH  REQUESTED:          0  ISSUED:          0  USEFUL:     116021  USELESS:      30356
ITLB USEFUL LOAD PREFETCHES:     116021 PREFETCH ISSUED TO LOWER LEVEL:          0  ACCURACY: inf
ITLB TIMELY PREFETCHES:     116021 LATE PREFETCHES: 1101 DROPPED PREFETCHES: 5657
ITLB PREFETCHES SAME FILL-ORIGIN LEVEL: 0 DIFFERENT FILL-ORIGIN LEVEL: 0
ITLB AVERAGE MISS LATENCY: 261063 cycles
ITLB RQ	ACCESS:   12402941	FORWARD:          0	MERGED:    3290015	TO_CACHE:    9112926

DTLB TOTAL     ACCESS:    9684203  HIT:    9108949  MISS:     575254  HIT %:    94.0599  MISS %:    5.94013   MPKI: 11.5051
DTLB LOAD TRANSLATION ACCESS:    9684203  HIT:    9108949  MISS:     575254  HIT %:    94.0599  MISS %:    5.94013   MPKI: 11.5051
DTLBprefetch_cycle_count: 0 prefetches_per_prefetch_cycle: -nan
DTLB PREFETCH  REQUESTED:          0  ISSUED:          0  USEFUL:          0  USELESS:          0
DTLB USEFUL LOAD PREFETCHES:          0 PREFETCH ISSUED TO LOWER LEVEL:          0  ACCURACY: -nan
DTLB TIMELY PREFETCHES:          0 LATE PREFETCHES: 0 DROPPED PREFETCHES: 0
DTLB PREFETCHES SAME FILL-ORIGIN LEVEL: 0 DIFFERENT FILL-ORIGIN LEVEL: 0
DTLB AVERAGE MISS LATENCY: 15.3889 cycles
DTLB RQ	ACCESS:   12236927	FORWARD:          0	MERGED:    2515746	TO_CACHE:    9721181

STLB TOTAL     ACCESS:     815547  HIT:     712376  MISS:     103171  HIT %:    87.3495  MISS %:    12.6505   MPKI: 2.06342
STLB LOAD TRANSLATION ACCESS:     650106  HIT:     569414  MISS:      80692  HIT %:    87.5879  MISS %:    12.4121   MPKI: 1.61384
STLB TRANSLATION FROM L1D PREFETCHER ACCESS:     165441  HIT:     142962  MISS:      22479  HIT %:    86.4127  MISS %:    13.5873   MPKI: 0.44958
STLBprefetch_cycle_count: 0 prefetches_per_prefetch_cycle: -nan
STLB PREFETCH  REQUESTED:          0  ISSUED:          0  USEFUL:      13606  USELESS:       8893
STLB USEFUL LOAD PREFETCHES:      13606 PREFETCH ISSUED TO LOWER LEVEL:          0  ACCURACY: inf
STLB TIMELY PREFETCHES:      13606 LATE PREFETCHES: 8 DROPPED PREFETCHES: 5657
STLB PREFETCHES SAME FILL-ORIGIN LEVEL: 0 DIFFERENT FILL-ORIGIN LEVEL: 0
STLB AVERAGE MISS LATENCY: 50.846 cycles
STLB RQ	ACCESS:     833480	FORWARD:          0	MERGED:      12268	TO_CACHE:     821212

STLB Hit, L1D data hit: 0
STLB Hit, L2C data hit: 0
STLB Hit, LLC data hit: 0
STLB Hit, LLC data miss: 0
STLB STLB hints to L2: 0
L1D TOTAL     ACCESS:   12096309  HIT:   11455442  MISS:     640867  HIT %:     94.702  MISS %:    5.29804   MPKI: 12.8173
L1D LOAD      ACCESS:    7233479  HIT:    6694313  MISS:     539166  HIT %:    92.5462  MISS %:    7.45376   MPKI: 10.7833
L1D RFO       ACCESS:    4833393  HIT:    4742252  MISS:      91141  HIT %:    98.1143  MISS %:    1.88565   MPKI: 1.82282
L1D PREFETCH  ACCESS:      29437  HIT:      18877  MISS:      10560  HIT %:    64.1268  MISS %:    35.8732   MPKI: 0.2112
L1Dprefetch_cycle_count: 18342 prefetches_per_prefetch_cycle: 3.298
L1D PREFETCH  REQUESTED:      60526  ISSUED:      60492  USEFUL:       3823  USELESS:       6734
L1D USEFUL LOAD PREFETCHES:       3823 PREFETCH ISSUED TO LOWER LEVEL:      10988  ACCURACY: 34.7925
L1D TIMELY PREFETCHES:       3823 LATE PREFETCHES: 417 DROPPED PREFETCHES: 0
L1D PREFETCHES SAME FILL-ORIGIN LEVEL: 10988 DIFFERENT FILL-ORIGIN LEVEL: 0
L1D AVERAGE MISS LATENCY: 17225.9 cycles
L1D RQ	ACCESS:   11101305	FORWARD:          0	MERGED:    3746633	TO_CACHE:    7274558
L1D WQ	ACCESS:    5073610	FORWARD:      80118	MERGED:     111241	TO_CACHE:    4962369
L1D PQ	ACCESS:      30248	FORWARD:          0	MERGED:          0	TO_CACHE:      30244

L1D UNIQUE REGIONS ACCESSED: 0
L1D REGIONS CONFLICTS: 0
L1D Cross Page Prefetch Requests: 0
L1D Same Page Prefetch Requests: 33864
L1D ROI Sum of L1D PQ occupancy: 398103
L1D PREFETCHES PUSHED FROM L2C: 0
L1I TOTAL     ACCESS:   12241310  HIT:   10352506  MISS:    1888804  HIT %:    84.5702  MISS %:    15.4298   MPKI: 37.7761
L1I LOAD      ACCESS:    9551650  HIT:    9270526  MISS:     281124  HIT %:    97.0568  MISS %:     2.9432   MPKI: 5.62248
L1I PREFETCH  ACCESS:    2689660  HIT:    1081980  MISS:    1607680  HIT %:    40.2274  MISS %:    59.7726   MPKI: 32.1536
L1Iprefetch_cycle_count: 0 prefetches_per_prefetch_cycle: inf
L1I PREFETCH  REQUESTED:    2924712  ISSUED:    2916911  USEFUL:    1041668  USELESS:     566012
L1I USEFUL LOAD PREFETCHES:    1041668 PREFETCH ISSUED TO LOWER LEVEL:    1641649  ACCURACY: 63.4525
L1I TIMELY PREFETCHES:    1041668 LATE PREFETCHES: 33944 DROPPED PREFETCHES: 19117
L1I PREFETCHES SAME FILL-ORIGIN LEVEL: 1641649 DIFFERENT FILL-ORIGIN LEVEL: 0
L1I AVERAGE MISS LATENCY: 934128 cycles
L1I RQ	ACCESS:   13823811	FORWARD:          0	MERGED:    4241789	TO_CACHE:    9582022
L1I PQ	ACCESS:    2916911	FORWARD:          0	MERGED:      95992	TO_CACHE:    2820919

BTB TOTAL     ACCESS:    5007119  HIT:    4225540  MISS:     781579  HIT %:    84.3906  MISS %:    15.6094   MPKI: 15.6316
BTB BRANCH_DIRECT_JUMP	ACCESS:     451601  HIT:     395730  MISS:      55871
BTB BRANCH_INDIRECT	ACCESS:     151580  HIT:     115440  MISS:      36140
BTB BRANCH_CONDITIONAL	ACCESS:    2656300  HIT:    2427735  MISS:     228565
BTB BRANCH_DIRECT_CALL	ACCESS:     647826  HIT:     542970  MISS:     104856
BTB BRANCH_INDIRECT_CALL	ACCESS:     211373  HIT:     173798  MISS:      37575
BTB BRANCH_RETURN	ACCESS:     888439  HIT:     569867  MISS:     318572
BTB BRANCH_OTHER ACCESS:          0  HIT:          0  MISS:          0

L2C TOTAL     ACCESS:    3372386  HIT:    2162321  MISS:    1210065  HIT %:    64.1184  MISS %:    35.8816   MPKI: 24.2013
L2C LOAD      ACCESS:     785916  HIT:     402442  MISS:     383474  HIT %:    51.2067  MISS %:    48.7933   MPKI: 7.66948
L2C DATA LOAD MPKI: 5.82506
L2C INSTRUCTION LOAD MPKI: 1.84442
L2C RFO       ACCESS:      91130  HIT:      39507  MISS:      51623  HIT %:    43.3524  MISS %:    56.6476   MPKI: 1.03246
L2C PREFETCH  ACCESS:    2104464  HIT:    1410917  MISS:     693547  HIT %:     67.044  MISS %:     32.956   MPKI: 13.8709
L2C DATA PREFETCH MPKI: 2.92992
L2C INSTRUCTION PREFETCH MPKI: 10.941
L2C WRITEBACK ACCESS:     249461  HIT:     225062  MISS:      24399  HIT %:    90.2193  MISS %:    9.78069   MPKI: 0.48798
L2C LOAD TRANSLATION ACCESS:     106118  HIT:      58399  MISS:      47719  HIT %:    55.0321  MISS %:    44.9679   MPKI: 0.95438
L2C TRANSLATION FROM L1D PREFETCHER ACCESS:      35297  HIT:      25994  MISS:       9303  HIT %:    73.6437  MISS %:    26.3563   MPKI: 0.18606
L2Cprefetch_cycle_count: 1323269 prefetches_per_prefetch_cycle: 1.0001
L2C PREFETCH  REQUESTED:    1323407  ISSUED:    1323400  USEFUL:      34197  USELESS:     668899
L2C USEFUL LOAD PREFETCHES:      34197 PREFETCH ISSUED TO LOWER LEVEL:     694834  ACCURACY: 4.92161
L2C TIMELY PREFETCHES:      34197 LATE PREFETCHES: 1287 DROPPED PREFETCHES: 0
L2C PREFETCHES SAME FILL-ORIGIN LEVEL: 166338 DIFFERENT FILL-ORIGIN LEVEL: 0
L2C AVERAGE MISS LATENCY: 44.4978 cycles
L2C RQ	ACCESS:    1018484	FORWARD:          0	MERGED:          0	TO_CACHE:    1018461
L2C WQ	ACCESS:     249461	FORWARD:         23	MERGED:          0	TO_CACHE:     249461
L2C PQ	ACCESS:    2976002	FORWARD:          0	MERGED:     842905	TO_CACHE:    2133097

L2C Instructions Evicting Data 270861
L2C Translations Evicting Data 24242
L2C Data Evicting Data 208931
L2C Instructions Evicting Instructions 338701
L2C Translations Evicting Instructions 29927
L2C Data Evicting Instructions 257001
L2C Instructions Evicting Translations 29710
L2C Translations Evicting Translations 2853
L2C Data Evicting Translations 23440
L2C Dense regions hint from L2: 0
PSCL5 TOTAL     ACCESS:     108828  HIT:     108828  MISS:          0  HIT %:        100  MISS %:          0   MPKI: 0
PSCL5 LOAD TRANSLATION ACCESS:      80684  HIT:      80684  MISS:          0  HIT %:        100  MISS %:          0   MPKI: 0
PSCL5 TRANSLATION FROM L1D PREFETCHER ACCESS:      28144  HIT:      28144  MISS:          0  HIT %:        100  MISS %:          0   MPKI: 0
PSCL5prefetch_cycle_count: 0 prefetches_per_prefetch_cycle: -nan
PSCL5 PREFETCH  REQUESTED:          0  ISSUED:          0  USEFUL:          0  USELESS:          0
PSCL5 USEFUL LOAD PREFETCHES:          0 PREFETCH ISSUED TO LOWER LEVEL:          0  ACCURACY: -nan
PSCL5 TIMELY PREFETCHES:          0 LATE PREFETCHES: 0 DROPPED PREFETCHES: 0
PSCL5 PREFETCHES SAME FILL-ORIGIN LEVEL: 0 DIFFERENT FILL-ORIGIN LEVEL: 0

PSCL4 TOTAL     ACCESS:     101477  HIT:     101182  MISS:        295  HIT %:    99.7093  MISS %:   0.290706   MPKI: 0.0059
PSCL4 LOAD TRANSLATION ACCESS:      75261  HIT:      74966  MISS:        295  HIT %:     99.608  MISS %:   0.391969   MPKI: 0.0059
PSCL4 TRANSLATION FROM L1D PREFETCHER ACCESS:      26216  HIT:      26216  MISS:          0  HIT %:        100  MISS %:          0   MPKI: 0
PSCL4prefetch_cycle_count: 0 prefetches_per_prefetch_cycle: -nan
PSCL4 PREFETCH  REQUESTED:          0  ISSUED:          0  USEFUL:          0  USELESS:          0
PSCL4 USEFUL LOAD PREFETCHES:          0 PREFETCH ISSUED TO LOWER LEVEL:          0  ACCURACY: -nan
PSCL4 TIMELY PREFETCHES:          0 LATE PREFETCHES: 0 DROPPED PREFETCHES: 0
PSCL4 PREFETCHES SAME FILL-ORIGIN LEVEL: 0 DIFFERENT FILL-ORIGIN LEVEL: 0

PSCL3 TOTAL     ACCESS:     107198  HIT:     106324  MISS:        874  HIT %:    99.1847  MISS %:   0.815314   MPKI: 0.01748
PSCL3 LOAD TRANSLATION ACCESS:      80252  HIT:      79378  MISS:        874  HIT %:    98.9109  MISS %:    1.08907   MPKI: 0.01748
PSCL3 TRANSLATION FROM L1D PREFETCHER ACCESS:      26946  HIT:      26946  MISS:          0  HIT %:        100  MISS %:          0   MPKI: 0
PSCL3prefetch_cycle_count: 0 prefetches_per_prefetch_cycle: -nan
PSCL3 PREFETCH  REQUESTED:          0  ISSUED:          0  USEFUL:          0  USELESS:          0
PSCL3 USEFUL LOAD PREFETCHES:          0 PREFETCH ISSUED TO LOWER LEVEL:          0  ACCURACY: -nan
PSCL3 TIMELY PREFETCHES:          0 LATE PREFETCHES: 0 DROPPED PREFETCHES: 0
PSCL3 PREFETCHES SAME FILL-ORIGIN LEVEL: 0 DIFFERENT FILL-ORIGIN LEVEL: 0

PSCL2 TOTAL     ACCESS:     105791  HIT:      78198  MISS:      27593  HIT %:    73.9174  MISS %:    26.0826   MPKI: 0.55186
PSCL2 LOAD TRANSLATION ACCESS:      83751  HIT:      56158  MISS:      27593  HIT %:    67.0535  MISS %:    32.9465   MPKI: 0.55186
PSCL2 TRANSLATION FROM L1D PREFETCHER ACCESS:      22040  HIT:      22040  MISS:          0  HIT %:        100  MISS %:          0   MPKI: 0
PSCL2prefetch_cycle_count: 0 prefetches_per_prefetch_cycle: -nan
PSCL2 PREFETCH  REQUESTED:          0  ISSUED:          0  USEFUL:          0  USELESS:          0
PSCL2 USEFUL LOAD PREFETCHES:          0 PREFETCH ISSUED TO LOWER LEVEL:          0  ACCURACY: -nan
PSCL2 TIMELY PREFETCHES:          0 LATE PREFETCHES: 0 DROPPED PREFETCHES: 0
PSCL2 PREFETCHES SAME FILL-ORIGIN LEVEL: 0 DIFFERENT FILL-ORIGIN LEVEL: 0

LLC TOTAL     ACCESS:    1317627  HIT:    1199447  MISS:     118180  HIT %:    91.0308  MISS %:    8.96915   MPKI: 2.3636
LLC LOAD      ACCESS:     382201  HIT:     323729  MISS:      58472  HIT %:    84.7012  MISS %:    15.2988   MPKI: 1.16944
LLC RFO       ACCESS:      51604  HIT:      31269  MISS:      20335  HIT %:    60.5941  MISS %:    39.4059   MPKI: 0.4067
LLC PREFETCH  ACCESS:     694834  HIT:     660387  MISS:      34447  HIT %:    95.0424  MISS %:    4.95759   MPKI: 0.68894
LLC WRITEBACK ACCESS:     131966  HIT:     129604  MISS:       2362  HIT %:    98.2101  MISS %:    1.78985   MPKI: 0.04724
LLC LOAD TRANSLATION ACCESS:      47719  HIT:      45280  MISS:       2439  HIT %:    94.8888  MISS %:    5.11117   MPKI: 0.04878
LLC TRANSLATION FROM L1D PREFETCHER ACCESS:       9303  HIT:       9178  MISS:        125  HIT %:    98.6563  MISS %:    1.34365   MPKI: 0.0025
LLCprefetch_cycle_count: 0 prefetches_per_prefetch_cycle: -nan
LLC PREFETCH  REQUESTED:          0  ISSUED:          0  USEFUL:       1885  USELESS:      31363
LLC USEFUL LOAD PREFETCHES:       1885 PREFETCH ISSUED TO LOWER LEVEL:      34447  ACCURACY: 5.47217
LLC TIMELY PREFETCHES:       1885 LATE PREFETCHES: 0 DROPPED PREFETCHES: 0
LLC PREFETCHES SAME FILL-ORIGIN LEVEL: 0 DIFFERENT FILL-ORIGIN LEVEL: 0
LLC AVERAGE MISS LATENCY: 154.481 cycles
LLC RQ	ACCESS:     490832	FORWARD:          0	MERGED:          0	TO_CACHE:     490827
LLC WQ	ACCESS:     131966	FORWARD:          5	MERGED:          0	TO_CACHE:     131966
LLC PQ	ACCESS:     694834	FORWARD:          0	MERGED:          0	TO_CACHE:     694834

LLC Dense regions hint to LLC: 0

RAW hits: 995365
Loads Generated: 12096670
Loads sent to L1D: 11101305
Stores Generated: 5073603
Stores sent to L1D: 5073610
Major fault: 0 Minor fault: 7361
Allocated PAGES: 7361
I-Shadow cache 408 bytes
Touched + WorthPF tables 6144 bytes 
MMA filter 174 bytes 
FNL filter 272 bytes 
TOTAL PREFETCHER STORAGE SIZE: 25174 bytes
CPU 0 L1I next line prefetcher final stats

total_pref_operate_instances_l1: 634731
dynamic_config_counter_instances_1: 269815
dynamic_config_counter_instances_2: 33352
dynamic_config_counter_instances_3: 15313
dynamic_config_counter_instances_4: 37813
dynamic_config_counter_instances_5: 278438
stream: 
stream:times selected: 37132
stream:pref_filled: 7486
stream:pref_useful: 1694
stream:pref_late: 160
stream:misses: 387
stream:misses_by_poll: 0

CS: 
CS:times selected: 3823
CS:pref_filled: 2429
CS:pref_useful: 1917
CS:pref_late: 156
CS:misses: 283
CS:misses_by_poll: 2

CPLX: 
CPLX:times selected: 32518
CPLX:pref_filled: 1764
CPLX:pref_useful: 300
CPLX:pref_late: 52
CPLX:misses: 1946
CPLX:misses_by_poll: 2

NL_L1: 
NL:times selected: 2527
NL:pref_filled: 624
NL:pref_useful: 136
NL:pref_late: 38
NL:misses: 327
NL:misses_by_poll: 0

total selections: 76000
total_filled: 10560
total_useful: 3823
total_late: 462
total_polluted: 4
total_misses_after_warmup: 47820
conflicts: 242297
Degree Incremented Times: 40
Degree Decremented Times: 5144

L1 IP Table Write Accesses: 373546
L1 IP Table Read Accesses: 131249
L1 RST Write Accesses: 34449
L1 RST Read Accesses: 68898
L1 CSPT Write Accesses: 34449
L1 CSPT Read Accesses: 65850
L1 RR Filter Tag Write Accesses: 30282
L1 RR Filter Tag Read Accesses: 2369278
L1 IP Table Tag Write Accesses: 634731
L1 IP Table Tag Read Accesses: 634731
L1 RST Tag Write Accesses: 0
L1 RST Tag Read Accesses: 290396
L1 RR Filter Write Accesses: 0
L1 RR Filter Read Accesses: 88404
test: 10930
total_pref_operate_instances_l2: 1362568
dynamic_config_counter_instances_l2_1: 1352283
dynamic_config_counter_instances_l2_2: 4527
dynamic_config_counter_instances_l2_3: 5758
dynamic_config_counter_instances_l2_4: 0
dynamic_config_counter_instances_l2_5: 0
L2 IP Table Read Accesses: 1378190
L2 IP Table Write Accesses: 2716150
L2 IP Table Tag Read Accesses: 1362568
L2 IP Table Tag Write Accesses: 1362568

DRAM Statistics
 CHANNEL 0
 RQ ROW_BUFFER_HIT:      22287  ROW_BUFFER_MISS:      93531
 DBUS_CONGESTED:         86
 WQ ROW_BUFFER_HIT:      11972  ROW_BUFFER_MISS:      47178  FULL:          0

 AVG_CONGESTED_CYCLE: 4
 All warmup complete: 2
Channel 0 Bank busy for read cycles: 0
Channel 0 Bank busy for write cycles: 0
Channel 0
Rank 0
0banks busy for read cycles: 60460943
0banks busy for write cycles: 24734
1banks busy for read cycles: 7010276
1banks busy for write cycles: 3414102
2banks busy for read cycles: 1698015
2banks busy for write cycles: 1105691
3banks busy for read cycles: 507489
3banks busy for write cycles: 459008
4banks busy for read cycles: 237757
4banks busy for write cycles: 239137
5banks busy for read cycles: 139799
5banks busy for write cycles: 156600
6banks busy for read cycles: 103971
6banks busy for write cycles: 130804
7banks busy for read cycles: 99171
7banks busy for write cycles: 114776
8banks busy for read cycles: 31605
8banks busy for write cycles: 176360

CPU 0 Branch Prediction Accuracy: 97.5565% MPKI: 4.59006 Average ROB Occupancy at Mispredict: 38.6143
Branch types
NOT_BRANCH: 40607200 81.2144%
BRANCH_DIRECT_JUMP: 451601 0.903202%
BRANCH_INDIRECT: 151580 0.30316%
BRANCH_CONDITIONAL: 7041635 14.0833%
BRANCH_DIRECT_CALL: 647826 1.29565%
BRANCH_INDIRECT_CALL: 211373 0.422746%
BRANCH_RETURN: 888439 1.77688%
BRANCH_OTHER: 0 0%

DRAM PAGES: 1048576
Allocated PAGES: 7361
