
*** ChampSim Multicore Out-of-Order Simulator ***

Warmup Instructions: 50000000
Simulation Instructions: 50000000
Number of CPUs: 1
LLC sets: 2048
LLC ways: 16
Off-chip DRAM Size: 4096 MB Channels: 1 Width: 64-bit Data Rate: 6400 MT/s
CPU 0 runs ../IPC-traces//server_038.champsimtrace.xz
.xz
NUM_OF_IPS_IN_CRITICAL_IP_TRAINING: 64
NUM_OF_CRITICAL_IP_TRAINING_TABLE_WAYS: 2
NUM_OF_CRITICAL_IP_TRAINING_TABLE_SETS: 32
WOBBLY_CRITICAL_IP_CACHE_SETS: 32
WOBBLY_CRITICAL_IP_CACHE_WAYS: 4
BTB has LRU replacement policy
ITLB has LRU replacement policy
DTLB has LRU replacement policy
STLB has LRU replacement policy
CPU 0 L1I next line prefetcher
L1I has LRU replacement policy
IP Table Entries: 256
L1D has LRU replacement policy
Initialize SRRIP state for L2C
Initialize DRRIP state for LLC
Heartbeat CPU 0 instructions: 10000001 cycles: 2750314 heartbeat IPC: 3.63595 cumulative IPC: 3.63595 (Simulation time: 0 hr 3 min 27 sec) 
Heartbeat CPU 0 instructions: 20000001 cycles: 5499250 heartbeat IPC: 3.63777 cumulative IPC: 3.63686 (Simulation time: 0 hr 6 min 12 sec) 
Heartbeat CPU 0 instructions: 30000003 cycles: 8246098 heartbeat IPC: 3.64054 cumulative IPC: 3.63808 (Simulation time: 0 hr 8 min 43 sec) 
Heartbeat CPU 0 instructions: 40000001 cycles: 10994616 heartbeat IPC: 3.63832 cumulative IPC: 3.63814 (Simulation time: 0 hr 11 min 0 sec) 
Heartbeat CPU 0 instructions: 50000003 cycles: 13743618 heartbeat IPC: 3.63768 cumulative IPC: 3.63805 (Simulation time: 0 hr 13 min 9 sec) 

Warmup complete CPU 0 instructions: 50000003 cycles: 13743618 (Simulation time: 0 hr 13 min 9 sec) 

Heartbeat CPU 0 instructions: 60000000 cycles: 25265120 heartbeat IPC: 0.867942 cumulative IPC: 0.867942 (Simulation time: 0 hr 15 min 24 sec) 
Heartbeat CPU 0 instructions: 70000001 cycles: 36721326 heartbeat IPC: 0.872889 cumulative IPC: 0.870409 (Simulation time: 0 hr 17 min 37 sec) 
Heartbeat CPU 0 instructions: 80000002 cycles: 48191938 heartbeat IPC: 0.871793 cumulative IPC: 0.87087 (Simulation time: 0 hr 19 min 50 sec) 
Heartbeat CPU 0 instructions: 90000001 cycles: 59655014 heartbeat IPC: 0.872366 cumulative IPC: 0.871243 (Simulation time: 0 hr 22 min 1 sec) 
*** Reached end of trace for Core: 0 Repeating trace: ../IPC-traces//server_038.champsimtrace.xz
Heartbeat CPU 0 instructions: 100000002 cycles: 71125148 heartbeat IPC: 0.87183 cumulative IPC: 0.87136 (Simulation time: 0 hr 23 min 48 sec) 
Finished CPU 0 instructions: 50000003 cycles: 57381531 cumulative IPC: 0.871361 (Simulation time: 0 hr 23 min 48 sec) 

ChampSim completed all CPUs

Region of Interest Statistics

CPU 0 cumulative IPC: 0.871361 instructions: 50000003 cycles: 57381531

CPU 0 Average Load ROB stall cycles: 1.47344e+07
CPU 0 Fraction of times ROB stalled by Loads: 34.7122
CPU 0 Percentage of Load stall cycles in Total stall cycles: 2.25783e+08
Issued all: 25213163
Issued LT all: 19470394
rob_not_full_when_issued_lt_all: 19309200
Issued LT one: 14470356
rob_not_full_when_issued_lt_one: 14322053
 Total stall cycles: 45731898
 Total load stall cycles: 103255002982038
CPU 0 NUM of IPS identified critical: 0
CPU 0 Num of Load IPs stalling ROB: 4299
Threshold modification factor: 0
Max PIST entries: 64
Min PIST entries: 0
Avg PIST entries: 32
Trouble in retire width: 0.810873
MaC = Marked as critical.
lt_50_percent_before_Mac: 0
gt_90_percent_before_Mac: 0
gt_75_percent_before_Mac: 0
gt_50_percent_before_Mac: 0
stall_proportion_bin_same_before_after: 0
stall_proportion_bin_lower_before_after: 0
stall_proportion_bin_upper_before_after: 0
average_stall_proportion_before: -nan
average_stall_proportion_after: -nan
Critical IP stalls, total frequency: 0
Non-critical IP stalls, total frequency: 2432550
Total Freq all stalling IPs: 2432550
stat_90_percent_critical_ip_stalls_freq: 2189557
stat_90_percent_non_critical_ip_stalls_freq: 242993
Critical_IP_ROB_Stalls_Bucket_0: 0
Non-critical_IP_ROB_Stalls_Bucket_0: 1089514
Critical_IP_ROB_Stalls_Bucket_1: 0
Non-critical_IP_ROB_Stalls_Bucket_1: 886168
Critical_IP_ROB_Stalls_Bucket_2: 0
Non-critical_IP_ROB_Stalls_Bucket_2: 322958
Critical_IP_ROB_Stalls_Bucket_3: 0
Non-critical_IP_ROB_Stalls_Bucket_3: 92580
Critical_IP_ROB_Stalls_Bucket_4: 0
Non-critical_IP_ROB_Stalls_Bucket_4: 19705
Critical_IP_ROB_Stalls_Bucket_5: 0
Non-critical_IP_ROB_Stalls_Bucket_5: 13387
Critical_IP_ROB_Stalls_Bucket_6: 0
Non-critical_IP_ROB_Stalls_Bucket_6: 8238
0 => IPs accounting for >50 percent of stalls, 1 => 55, 2 => 60, 3 => 65 and so on till 90.
percent50: 50.0757 num IPs:  244
percent55: 55.0282 num IPs: 282
percent60: 60.0616 num IPs: 321
percent65: 65.1139 num IPs: 361
percent70: 70.087 num IPs: 402
percent75: 75.0827 num IPs: 446
percent80: 80.0653 num IPs: 495
percent85: 85.0621 num IPs: 553
percent90: 90.0107 num IPs: 644
Critical_ROB_Stalls_Percent_0_Bucket_0: 521213
Non-critical_ROB_Stalls_Percent_0_Bucket_0: 568301
Critical_ROB_Stalls_Percent_0_Bucket_1: 436580
Non-critical_ROB_Stalls_Percent_0_Bucket_1: 449588
Critical_ROB_Stalls_Percent_0_Bucket_2: 186264
Non-critical_ROB_Stalls_Percent_0_Bucket_2: 136694
Critical_ROB_Stalls_Percent_0_Bucket_3: 45179
Non-critical_ROB_Stalls_Percent_0_Bucket_3: 47401
Critical_ROB_Stalls_Percent_0_Bucket_4: 14136
Non-critical_ROB_Stalls_Percent_0_Bucket_4: 5569
Critical_ROB_Stalls_Percent_0_Bucket_5: 10708
Non-critical_ROB_Stalls_Percent_0_Bucket_5: 2679
Critical_ROB_Stalls_Percent_0_Bucket_6: 4038
Non-critical_ROB_Stalls_Percent_0_Bucket_6: 4200
Critical_ROB_Stalls_Percent_1_Bucket_0: 557641
Non-critical_ROB_Stalls_Percent_1_Bucket_0: 531873
Critical_ROB_Stalls_Percent_1_Bucket_1: 504813
Non-critical_ROB_Stalls_Percent_1_Bucket_1: 381355
Critical_ROB_Stalls_Percent_1_Bucket_2: 199746
Non-critical_ROB_Stalls_Percent_1_Bucket_2: 123212
Critical_ROB_Stalls_Percent_1_Bucket_3: 47213
Non-critical_ROB_Stalls_Percent_1_Bucket_3: 45367
Critical_ROB_Stalls_Percent_1_Bucket_4: 14279
Non-critical_ROB_Stalls_Percent_1_Bucket_4: 5426
Critical_ROB_Stalls_Percent_1_Bucket_5: 10834
Non-critical_ROB_Stalls_Percent_1_Bucket_5: 2553
Critical_ROB_Stalls_Percent_1_Bucket_6: 4063
Non-critical_ROB_Stalls_Percent_1_Bucket_6: 4175
Critical_ROB_Stalls_Percent_2_Bucket_0: 593037
Non-critical_ROB_Stalls_Percent_2_Bucket_0: 496477
Critical_ROB_Stalls_Percent_2_Bucket_1: 561909
Non-critical_ROB_Stalls_Percent_2_Bucket_1: 324259
Critical_ROB_Stalls_Percent_2_Bucket_2: 220659
Non-critical_ROB_Stalls_Percent_2_Bucket_2: 102299
Critical_ROB_Stalls_Percent_2_Bucket_3: 56156
Non-critical_ROB_Stalls_Percent_2_Bucket_3: 36424
Critical_ROB_Stalls_Percent_2_Bucket_4: 14363
Non-critical_ROB_Stalls_Percent_2_Bucket_4: 5342
Critical_ROB_Stalls_Percent_2_Bucket_5: 10843
Non-critical_ROB_Stalls_Percent_2_Bucket_5: 2544
Critical_ROB_Stalls_Percent_2_Bucket_6: 4063
Non-critical_ROB_Stalls_Percent_2_Bucket_6: 4175
Critical_ROB_Stalls_Percent_3_Bucket_0: 653285
Non-critical_ROB_Stalls_Percent_3_Bucket_0: 436229
Critical_ROB_Stalls_Percent_3_Bucket_1: 605350
Non-critical_ROB_Stalls_Percent_3_Bucket_1: 280818
Critical_ROB_Stalls_Percent_3_Bucket_2: 233373
Non-critical_ROB_Stalls_Percent_3_Bucket_2: 89585
Critical_ROB_Stalls_Percent_3_Bucket_3: 62122
Non-critical_ROB_Stalls_Percent_3_Bucket_3: 30458
Critical_ROB_Stalls_Percent_3_Bucket_4: 14806
Non-critical_ROB_Stalls_Percent_3_Bucket_4: 4899
Critical_ROB_Stalls_Percent_3_Bucket_5: 10886
Non-critical_ROB_Stalls_Percent_3_Bucket_5: 2501
Critical_ROB_Stalls_Percent_3_Bucket_6: 4108
Non-critical_ROB_Stalls_Percent_3_Bucket_6: 4130
Critical_ROB_Stalls_Percent_4_Bucket_0: 707739
Non-critical_ROB_Stalls_Percent_4_Bucket_0: 381775
Critical_ROB_Stalls_Percent_4_Bucket_1: 648564
Non-critical_ROB_Stalls_Percent_4_Bucket_1: 237604
Critical_ROB_Stalls_Percent_4_Bucket_2: 252310
Non-critical_ROB_Stalls_Percent_4_Bucket_2: 70648
Critical_ROB_Stalls_Percent_4_Bucket_3: 66230
Non-critical_ROB_Stalls_Percent_4_Bucket_3: 26350
Critical_ROB_Stalls_Percent_4_Bucket_4: 15020
Non-critical_ROB_Stalls_Percent_4_Bucket_4: 4685
Critical_ROB_Stalls_Percent_4_Bucket_5: 10903
Non-critical_ROB_Stalls_Percent_4_Bucket_5: 2484
Critical_ROB_Stalls_Percent_4_Bucket_6: 4138
Non-critical_ROB_Stalls_Percent_4_Bucket_6: 4100
Critical_ROB_Stalls_Percent_5_Bucket_0: 777639
Non-critical_ROB_Stalls_Percent_5_Bucket_0: 311875
Critical_ROB_Stalls_Percent_5_Bucket_1: 691742
Non-critical_ROB_Stalls_Percent_5_Bucket_1: 194426
Critical_ROB_Stalls_Percent_5_Bucket_2: 256499
Non-critical_ROB_Stalls_Percent_5_Bucket_2: 66459
Critical_ROB_Stalls_Percent_5_Bucket_3: 69700
Non-critical_ROB_Stalls_Percent_5_Bucket_3: 22880
Critical_ROB_Stalls_Percent_5_Bucket_4: 15622
Non-critical_ROB_Stalls_Percent_5_Bucket_4: 4083
Critical_ROB_Stalls_Percent_5_Bucket_5: 11086
Non-critical_ROB_Stalls_Percent_5_Bucket_5: 2301
Critical_ROB_Stalls_Percent_5_Bucket_6: 4139
Non-critical_ROB_Stalls_Percent_5_Bucket_6: 4099
Critical_ROB_Stalls_Percent_6_Bucket_0: 841042
Non-critical_ROB_Stalls_Percent_6_Bucket_0: 248472
Critical_ROB_Stalls_Percent_6_Bucket_1: 730897
Non-critical_ROB_Stalls_Percent_6_Bucket_1: 155271
Critical_ROB_Stalls_Percent_6_Bucket_2: 271155
Non-critical_ROB_Stalls_Percent_6_Bucket_2: 51803
Critical_ROB_Stalls_Percent_6_Bucket_3: 73325
Non-critical_ROB_Stalls_Percent_6_Bucket_3: 19255
Critical_ROB_Stalls_Percent_6_Bucket_4: 15854
Non-critical_ROB_Stalls_Percent_6_Bucket_4: 3851
Critical_ROB_Stalls_Percent_6_Bucket_5: 11182
Non-critical_ROB_Stalls_Percent_6_Bucket_5: 2205
Critical_ROB_Stalls_Percent_6_Bucket_6: 4175
Non-critical_ROB_Stalls_Percent_6_Bucket_6: 4063
Critical_ROB_Stalls_Percent_7_Bucket_0: 920593
Non-critical_ROB_Stalls_Percent_7_Bucket_0: 168921
Critical_ROB_Stalls_Percent_7_Bucket_1: 760365
Non-critical_ROB_Stalls_Percent_7_Bucket_1: 125803
Critical_ROB_Stalls_Percent_7_Bucket_2: 278063
Non-critical_ROB_Stalls_Percent_7_Bucket_2: 44895
Critical_ROB_Stalls_Percent_7_Bucket_3: 75531
Non-critical_ROB_Stalls_Percent_7_Bucket_3: 17049
Critical_ROB_Stalls_Percent_7_Bucket_4: 16070
Non-critical_ROB_Stalls_Percent_7_Bucket_4: 3635
Critical_ROB_Stalls_Percent_7_Bucket_5: 12405
Non-critical_ROB_Stalls_Percent_7_Bucket_5: 982
Critical_ROB_Stalls_Percent_7_Bucket_6: 6153
Non-critical_ROB_Stalls_Percent_7_Bucket_6: 2085
Critical_ROB_Stalls_Percent_8_Bucket_0: 983772
Non-critical_ROB_Stalls_Percent_8_Bucket_0: 105742
Critical_ROB_Stalls_Percent_8_Bucket_1: 798427
Non-critical_ROB_Stalls_Percent_8_Bucket_1: 87741
Critical_ROB_Stalls_Percent_8_Bucket_2: 290148
Non-critical_ROB_Stalls_Percent_8_Bucket_2: 32810
Critical_ROB_Stalls_Percent_8_Bucket_3: 80771
Non-critical_ROB_Stalls_Percent_8_Bucket_3: 11809
Critical_ROB_Stalls_Percent_8_Bucket_4: 16306
Non-critical_ROB_Stalls_Percent_8_Bucket_4: 3399
Critical_ROB_Stalls_Percent_8_Bucket_5: 12596
Non-critical_ROB_Stalls_Percent_8_Bucket_5: 791
Critical_ROB_Stalls_Percent_8_Bucket_6: 7537
Non-critical_ROB_Stalls_Percent_8_Bucket_6: 701
Average ROB occupancy Load Stall Begin: 54.6779
Average ROB occupancy Load Stall End: 66.1674
Min ROB occupancy Load Stall Begin: 1
Max ROB occupancy Load Stall Begin: 352
Min ROB occupancy Load Stall End: 1
Max ROB occupancy Load Stall End: 352
Average ROB occupancy Critical Load Stall Begin: -nan
Average ROB occupancy Critical Load Stall End: -nan
Min ROB occupancy Critical Load Stall Begin: 400
Max ROB occupancy Critical Load Stall Begin: 0
Min ROB occupancy Critical Load Stall End: 400
Max ROB occupancy Critical Load Stall End: 0
 ROB Load Stall Begin Bucket Count 0: 1417743
 ROB Load Stall End Bucket Count 0: 1089514
 ROB Critical Load Stall Begin Bucket Count 0: 0
 ROB Critical Load Stall End Bucket Count 0: 0
 ROB Load Stall Begin Bucket Count 1: 694888
 ROB Load Stall End Bucket Count 1: 886168
 ROB Critical Load Stall Begin Bucket Count 1: 0
 ROB Critical Load Stall End Bucket Count 1: 0
 ROB Load Stall Begin Bucket Count 2: 231827
 ROB Load Stall End Bucket Count 2: 322958
 ROB Critical Load Stall Begin Bucket Count 2: 0
 ROB Critical Load Stall End Bucket Count 2: 0
 ROB Load Stall Begin Bucket Count 3: 58546
 ROB Load Stall End Bucket Count 3: 92580
 ROB Critical Load Stall Begin Bucket Count 3: 0
 ROB Critical Load Stall End Bucket Count 3: 0
 ROB Load Stall Begin Bucket Count 4: 10323
 ROB Load Stall End Bucket Count 4: 19705
 ROB Critical Load Stall Begin Bucket Count 4: 0
 ROB Critical Load Stall End Bucket Count 4: 0
 ROB Load Stall Begin Bucket Count 5: 12902
 ROB Load Stall End Bucket Count 5: 13387
 ROB Critical Load Stall Begin Bucket Count 5: 0
 ROB Critical Load Stall End Bucket Count 5: 0
 ROB Load Stall Begin Bucket Count 6: 6321
 ROB Load Stall End Bucket Count 6: 8238
 ROB Critical Load Stall Begin Bucket Count 6: 0
 ROB Critical Load Stall End Bucket Count 6: 0
PIST Tag Read Accesses: 2614390
PIST Read Accesses: 1307195
PIST Tag Write Accesses: 2614390
PIST Write Accesses: 1307195
Criticality detector called times: 2430763
Max global_stall_cycles_count: 2559262
Threshold Modified: 0 times, factor: 0
Sturdy critical IP cache stats: 
 Unused entries: 0
CIC Tag Read Accesses: 0
CIC Read Accesses: 0
CIC Tag Write Accesses: 0
CIC Write Accesses: 0
Wobbly critical IP cache stats: 
 Unused entries: 127
CIC Tag Read Accesses: 145300135
CIC Read Accesses: 0
CIC Tag Write Accesses: 1
CIC Write Accesses: 0
ITLB TOTAL     ACCESS:   10598195  HIT:    9872265  MISS:     725930  HIT %:    93.1504  MISS %:    6.84956   MPKI: 14.5186
ITLB LOAD TRANSLATION ACCESS:    8001313  HIT:    7967709  MISS:      33604  HIT %:      99.58  MISS %:   0.419981   MPKI: 0.67208
ITLB TRANSLATION FROM L1D PREFETCHER ACCESS:    2596882  HIT:    1904556  MISS:     692326  HIT %:    73.3401  MISS %:    26.6599   MPKI: 13.8465
ITLB PREFETCH  REQUESTED:          0  ISSUED:          0  USEFUL:     648988  USELESS:      43338
ITLB USEFUL LOAD PREFETCHES:     648988 PREFETCH ISSUED TO LOWER LEVEL:          0  ACCURACY: inf
ITLB TIMELY PREFETCHES:     648988 LATE PREFETCHES: 5 DROPPED PREFETCHES: 79
ITLB PREFETCHES SAME FILL-ORIGIN LEVEL: 0 DIFFERENT FILL-ORIGIN LEVEL: 0
ITLB AVERAGE MISS LATENCY: 272.24 cycles
ITLB RQ	ACCESS:   16247903	FORWARD:          0	MERGED:    5562347	TO_CACHE:   10685556

DTLB TOTAL     ACCESS:    9388866  HIT:    8868996  MISS:     519870  HIT %:    94.4629  MISS %:    5.53709   MPKI: 10.3974
DTLB LOAD TRANSLATION ACCESS:    9388866  HIT:    8868996  MISS:     519870  HIT %:    94.4629  MISS %:    5.53709   MPKI: 10.3974
DTLB PREFETCH  REQUESTED:          0  ISSUED:          0  USEFUL:          0  USELESS:          0
DTLB USEFUL LOAD PREFETCHES:          0 PREFETCH ISSUED TO LOWER LEVEL:          0  ACCURACY: -nan
DTLB TIMELY PREFETCHES:          0 LATE PREFETCHES: 0 DROPPED PREFETCHES: 0
DTLB PREFETCHES SAME FILL-ORIGIN LEVEL: 0 DIFFERENT FILL-ORIGIN LEVEL: 0
DTLB AVERAGE MISS LATENCY: 9.85925 cycles
DTLB RQ	ACCESS:   13424234	FORWARD:          0	MERGED:    3993366	TO_CACHE:    9430868

STLB TOTAL     ACCESS:    1247469  HIT:    1241593  MISS:       5876  HIT %:     99.529  MISS %:   0.471034   MPKI: 0.11752
STLB LOAD TRANSLATION ACCESS:     553469  HIT:     547718  MISS:       5751  HIT %:    98.9609  MISS %:    1.03908   MPKI: 0.11502
STLB TRANSLATION FROM L1D PREFETCHER ACCESS:     694000  HIT:     693875  MISS:        125  HIT %:     99.982  MISS %:  0.0180115   MPKI: 0.0025
STLB PREFETCH  REQUESTED:          0  ISSUED:          0  USEFUL:         63  USELESS:         52
STLB USEFUL LOAD PREFETCHES:         63 PREFETCH ISSUED TO LOWER LEVEL:          0  ACCURACY: inf
STLB TIMELY PREFETCHES:         63 LATE PREFETCHES: 0 DROPPED PREFETCHES: 79
STLB PREFETCHES SAME FILL-ORIGIN LEVEL: 0 DIFFERENT FILL-ORIGIN LEVEL: 0
STLB AVERAGE MISS LATENCY: 75.0252 cycles
STLB RQ	ACCESS:    1247696	FORWARD:          0	MERGED:        148	TO_CACHE:    1247548

STLB Hit, L1D data hit: 0
STLB Hit, L2C data hit: 0
STLB Hit, LLC data hit: 0
STLB Hit, LLC data miss: 0
STLB STLB hints to L2: 0
L1D TOTAL     ACCESS:   13325289  HIT:   12885317  MISS:     439972  HIT %:    96.6982  MISS %:    3.30178   MPKI: 8.79944
L1D LOAD      ACCESS:    7075999  HIT:    6699673  MISS:     376326  HIT %:    94.6817  MISS %:    5.31834   MPKI: 7.52652
L1D RFO       ACCESS:    6247807  HIT:    6185633  MISS:      62174  HIT %:    99.0049  MISS %:   0.995133   MPKI: 1.24348
L1D PREFETCH  ACCESS:       1483  HIT:         11  MISS:       1472  HIT %:    0.74174  MISS %:    99.2583   MPKI: 0.02944
L1D PREFETCH  REQUESTED:       3634  ISSUED:       3634  USEFUL:       1427  USELESS:         45
L1D USEFUL LOAD PREFETCHES:       1427 PREFETCH ISSUED TO LOWER LEVEL:       1803  ACCURACY: 79.1459
L1D TIMELY PREFETCHES:       1427 LATE PREFETCHES: 331 DROPPED PREFETCHES: 0
L1D PREFETCHES SAME FILL-ORIGIN LEVEL: 1803 DIFFERENT FILL-ORIGIN LEVEL: 0
L1D AVERAGE MISS LATENCY: 29502.9 cycles
L1D RQ	ACCESS:   10939876	FORWARD:          0	MERGED:    3696359	TO_CACHE:    7091743
L1D WQ	ACCESS:    6427456	FORWARD:     151774	MERGED:      94965	TO_CACHE:    6332491
L1D PQ	ACCESS:       1817	FORWARD:          0	MERGED:          0	TO_CACHE:       1817

L1D UNIQUE REGIONS ACCESSED: 0
L1D REGIONS CONFLICTS: 0
L1D Cross Page Prefetch Requests: 0
L1D Same Page Prefetch Requests: 1817
L1D ROI Sum of L1D PQ occupancy: 24053
L1D PREFETCHES PUSHED FROM L2C: 0
L1I TOTAL     ACCESS:   16209613  HIT:   11467751  MISS:    4741862  HIT %:    70.7466  MISS %:    29.2534   MPKI: 94.8372
L1I LOAD      ACCESS:    9513857  HIT:    9498881  MISS:      14976  HIT %:    99.8426  MISS %:   0.157412   MPKI: 0.29952
L1I PREFETCH  ACCESS:    6695756  HIT:    1968870  MISS:    4726886  HIT %:    29.4047  MISS %:    70.5953   MPKI: 94.5377
L1I PREFETCH  REQUESTED:    6922108  ISSUED:    6906536  USEFUL:    4108797  USELESS:     618102
L1I USEFUL LOAD PREFETCHES:    4108797 PREFETCH ISSUED TO LOWER LEVEL:    4730620  ACCURACY: 86.8554
L1I TIMELY PREFETCHES:    4108797 LATE PREFETCHES: 3736 DROPPED PREFETCHES: 158
L1I PREFETCHES SAME FILL-ORIGIN LEVEL: 4730620 DIFFERENT FILL-ORIGIN LEVEL: 0
L1I AVERAGE MISS LATENCY: 33417.7 cycles
L1I RQ	ACCESS:   14203331	FORWARD:          0	MERGED:    4688662	TO_CACHE:    9514669
L1I PQ	ACCESS:    6906536	FORWARD:          0	MERGED:     173302	TO_CACHE:    6733234

BTB TOTAL     ACCESS:    5373999  HIT:    4845470  MISS:     528529  HIT %:    90.1651  MISS %:    9.83493   MPKI: 10.5706
BTB BRANCH_DIRECT_JUMP	ACCESS:     541911  HIT:     528428  MISS:      13483
BTB BRANCH_INDIRECT	ACCESS:      59690  HIT:      59594  MISS:         96
BTB BRANCH_CONDITIONAL	ACCESS:    2296252  HIT:    2253029  MISS:      43223
BTB BRANCH_DIRECT_CALL	ACCESS:    1003585  HIT:     965030  MISS:      38555
BTB BRANCH_INDIRECT_CALL	ACCESS:     234499  HIT:     188656  MISS:      45843
BTB BRANCH_RETURN	ACCESS:    1238062  HIT:     850733  MISS:     387329
BTB BRANCH_OTHER ACCESS:          0  HIT:          0  MISS:          0

L2C TOTAL     ACCESS:    6236556  HIT:    6066986  MISS:     169570  HIT %:     97.281  MISS %:    2.71897   MPKI: 3.3914
L2C LOAD      ACCESS:     387159  HIT:     264669  MISS:     122490  HIT %:    68.3618  MISS %:    31.6382   MPKI: 2.4498
L2C DATA LOAD MPKI: 2.43868
L2C INSTRUCTION LOAD MPKI: 0.01112
L2C RFO       ACCESS:      62173  HIT:      36259  MISS:      25914  HIT %:    58.3195  MISS %:    41.6805   MPKI: 0.51828
L2C PREFETCH  ACCESS:    5545917  HIT:    5535447  MISS:      10470  HIT %:    99.8112  MISS %:   0.188788   MPKI: 0.2094
L2C DATA PREFETCH MPKI: 0.09314
L2C INSTRUCTION PREFETCH MPKI: 0.11626
L2C WRITEBACK ACCESS:     233096  HIT:     227544  MISS:       5552  HIT %:    97.6181  MISS %:    2.38185   MPKI: 0.11104
L2C LOAD TRANSLATION ACCESS:       7871  HIT:       2861  MISS:       5010  HIT %:    36.3486  MISS %:    63.6514   MPKI: 0.1002
L2C TRANSLATION FROM L1D PREFETCHER ACCESS:        340  HIT:        206  MISS:        134  HIT %:    60.5882  MISS %:    39.4118   MPKI: 0.00268
L2C PREFETCH  REQUESTED:    2078894  ISSUED:    2078894  USEFUL:        299  USELESS:      10124
L2C USEFUL LOAD PREFETCHES:        299 PREFETCH ISSUED TO LOWER LEVEL:      10471  ACCURACY: 2.85551
L2C TIMELY PREFETCHES:        299 LATE PREFETCHES: 1 DROPPED PREFETCHES: 0
L2C PREFETCHES SAME FILL-ORIGIN LEVEL: 3865 DIFFERENT FILL-ORIGIN LEVEL: 0
L2C AVERAGE MISS LATENCY: 49.2031 cycles
L2C RQ	ACCESS:     457620	FORWARD:          0	MERGED:          0	TO_CACHE:     457543
L2C WQ	ACCESS:     233096	FORWARD:         77	MERGED:          0	TO_CACHE:     233096
L2C PQ	ACCESS:    6811317	FORWARD:          0	MERGED:    1264295	TO_CACHE:    5547022

L2C Instructions Evicting Data 5775
L2C Translations Evicting Data 4672
L2C Data Evicting Data 142577
L2C Instructions Evicting Instructions 395
L2C Translations Evicting Instructions 193
L2C Data Evicting Instructions 5349
L2C Instructions Evicting Translations 199
L2C Translations Evicting Translations 279
L2C Data Evicting Translations 4579
L2C Dense regions hint from L2: 0
PSCL5 TOTAL     ACCESS:       5955  HIT:       5955  MISS:          0  HIT %:        100  MISS %:          0   MPKI: 0
PSCL5 LOAD TRANSLATION ACCESS:       5751  HIT:       5751  MISS:          0  HIT %:        100  MISS %:          0   MPKI: 0
PSCL5 TRANSLATION FROM L1D PREFETCHER ACCESS:        204  HIT:        204  MISS:          0  HIT %:        100  MISS %:          0   MPKI: 0
PSCL5 PREFETCH  REQUESTED:          0  ISSUED:          0  USEFUL:          0  USELESS:          0
PSCL5 USEFUL LOAD PREFETCHES:          0 PREFETCH ISSUED TO LOWER LEVEL:          0  ACCURACY: -nan
PSCL5 TIMELY PREFETCHES:          0 LATE PREFETCHES: 0 DROPPED PREFETCHES: 0
PSCL5 PREFETCHES SAME FILL-ORIGIN LEVEL: 0 DIFFERENT FILL-ORIGIN LEVEL: 0

PSCL4 TOTAL     ACCESS:       5936  HIT:       5933  MISS:          3  HIT %:    99.9495  MISS %:  0.0505391   MPKI: 6e-05
PSCL4 LOAD TRANSLATION ACCESS:       5732  HIT:       5729  MISS:          3  HIT %:    99.9477  MISS %:  0.0523378   MPKI: 6e-05
PSCL4 TRANSLATION FROM L1D PREFETCHER ACCESS:        204  HIT:        204  MISS:          0  HIT %:        100  MISS %:          0   MPKI: 0
PSCL4 PREFETCH  REQUESTED:          0  ISSUED:          0  USEFUL:          0  USELESS:          0
PSCL4 USEFUL LOAD PREFETCHES:          0 PREFETCH ISSUED TO LOWER LEVEL:          0  ACCURACY: -nan
PSCL4 TIMELY PREFETCHES:          0 LATE PREFETCHES: 0 DROPPED PREFETCHES: 0
PSCL4 PREFETCHES SAME FILL-ORIGIN LEVEL: 0 DIFFERENT FILL-ORIGIN LEVEL: 0

PSCL3 TOTAL     ACCESS:       5946  HIT:       5940  MISS:          6  HIT %:    99.8991  MISS %:   0.100908   MPKI: 0.00012
PSCL3 LOAD TRANSLATION ACCESS:       5742  HIT:       5736  MISS:          6  HIT %:    99.8955  MISS %:   0.104493   MPKI: 0.00012
PSCL3 TRANSLATION FROM L1D PREFETCHER ACCESS:        204  HIT:        204  MISS:          0  HIT %:        100  MISS %:          0   MPKI: 0
PSCL3 PREFETCH  REQUESTED:          0  ISSUED:          0  USEFUL:          0  USELESS:          0
PSCL3 USEFUL LOAD PREFETCHES:          0 PREFETCH ISSUED TO LOWER LEVEL:          0  ACCURACY: -nan
PSCL3 TIMELY PREFETCHES:          0 LATE PREFETCHES: 0 DROPPED PREFETCHES: 0
PSCL3 PREFETCHES SAME FILL-ORIGIN LEVEL: 0 DIFFERENT FILL-ORIGIN LEVEL: 0

PSCL2 TOTAL     ACCESS:       5876  HIT:       3685  MISS:       2191  HIT %:    62.7127  MISS %:    37.2873   MPKI: 0.04382
PSCL2 LOAD TRANSLATION ACCESS:       5808  HIT:       3617  MISS:       2191  HIT %:    62.2762  MISS %:    37.7238   MPKI: 0.04382
PSCL2 TRANSLATION FROM L1D PREFETCHER ACCESS:         68  HIT:         68  MISS:          0  HIT %:        100  MISS %:          0   MPKI: 0
PSCL2 PREFETCH  REQUESTED:          0  ISSUED:          0  USEFUL:          0  USELESS:          0
PSCL2 USEFUL LOAD PREFETCHES:          0 PREFETCH ISSUED TO LOWER LEVEL:          0  ACCURACY: -nan
PSCL2 TIMELY PREFETCHES:          0 LATE PREFETCHES: 0 DROPPED PREFETCHES: 0
PSCL2 PREFETCHES SAME FILL-ORIGIN LEVEL: 0 DIFFERENT FILL-ORIGIN LEVEL: 0

LLC TOTAL     ACCESS:     242477  HIT:     220309  MISS:      22168  HIT %:    90.8577  MISS %:    9.14231   MPKI: 0.44336
LLC LOAD      ACCESS:     122488  HIT:     108115  MISS:      14373  HIT %:    88.2658  MISS %:    11.7342   MPKI: 0.28746
LLC RFO       ACCESS:      25914  HIT:      20592  MISS:       5322  HIT %:    79.4628  MISS %:    20.5372   MPKI: 0.10644
LLC PREFETCH  ACCESS:      10471  HIT:       8349  MISS:       2122  HIT %:    79.7345  MISS %:    20.2655   MPKI: 0.04244
LLC WRITEBACK ACCESS:      78460  HIT:      78244  MISS:        216  HIT %:    99.7247  MISS %:     0.2753   MPKI: 0.00432
LLC LOAD TRANSLATION ACCESS:       5010  HIT:       4875  MISS:        135  HIT %:    97.3054  MISS %:    2.69461   MPKI: 0.0027
LLC TRANSLATION FROM L1D PREFETCHER ACCESS:        134  HIT:        134  MISS:          0  HIT %:        100  MISS %:          0   MPKI: 0
LLC PREFETCH  REQUESTED:          0  ISSUED:          0  USEFUL:          3  USELESS:        545
LLC USEFUL LOAD PREFETCHES:          3 PREFETCH ISSUED TO LOWER LEVEL:       2122  ACCURACY: 0.141376
LLC TIMELY PREFETCHES:          3 LATE PREFETCHES: 0 DROPPED PREFETCHES: 0
LLC PREFETCHES SAME FILL-ORIGIN LEVEL: 0 DIFFERENT FILL-ORIGIN LEVEL: 0
LLC AVERAGE MISS LATENCY: 154.207 cycles
LLC RQ	ACCESS:     153547	FORWARD:          0	MERGED:          0	TO_CACHE:     153546
LLC WQ	ACCESS:      78460	FORWARD:          1	MERGED:          0	TO_CACHE:      78460
LLC PQ	ACCESS:      10471	FORWARD:          0	MERGED:          0	TO_CACHE:      10471

LLC Dense regions hint to LLC: 0

RAW hits: 1609615
Loads Generated: 12549491
Loads sent to L1D: 10939876
Stores Generated: 6427447
Stores sent to L1D: 6427456
Major fault: 0 Minor fault: 5748
Allocated PAGES: 5748
I-Shadow cache 408 bytes
Touched + WorthPF tables 6144 bytes 
MMA filter 174 bytes 
FNL filter 272 bytes 
TOTAL PREFETCHER STORAGE SIZE: 25174 bytes
CPU 0 L1I next line prefetcher final stats

stream: 
stream:times selected: 1785
stream:pref_filled: 1469
stream:pref_useful: 1424
stream:pref_late: 308
stream:misses: 0
stream:misses_by_poll: 0

CS: 
CS:times selected: 1778
CS:pref_filled: 3
CS:pref_useful: 3
CS:pref_late: 1
CS:misses: 357
CS:misses_by_poll: 0

CPLX: 
CPLX:times selected: 5
CPLX:pref_filled: 0
CPLX:pref_useful: 0
CPLX:pref_late: 0
CPLX:misses: 0
CPLX:misses_by_poll: 0

NL_L1: 
NL:times selected: 0
NL:pref_filled: 0
NL:pref_useful: 0
NL:pref_late: 0
NL:misses: 0
NL:misses_by_poll: 0

total selections: 3568
total_filled: 1472
total_useful: 1427
total_late: 331
total_polluted: 0
total_misses_after_warmup: 360
conflicts: 1
Degree Incremented Times: 6
Degree Decremented Times: 0

L1 IP Table Write Accesses: 1787
L1 IP Table Read Accesses: 1786
L1 RST Write Accesses: 1786
L1 RST Read Accesses: 3564
L1 CSPT Write Accesses: 1786
L1 CSPT Read Accesses: 1801
L1 RR Filter Tag Write Accesses: 1817
L1 RR Filter Tag Read Accesses: 459050
L1 IP Table Tag Write Accesses: 1787
L1 IP Table Tag Read Accesses: 1787
L1 RST Tag Write Accesses: 56
L1 RST Tag Read Accesses: 16380
L1 RR Filter Write Accesses: 0
L1 RR Filter Read Accesses: 15604
test: 26
L2 IP Table Read Accesses: 2110903
L2 IP Table Write Accesses: 4220116
L2 IP Table Tag Read Accesses: 2110171
L2 IP Table Tag Write Accesses: 2110171

DRAM Statistics
 CHANNEL 0
 RQ ROW_BUFFER_HIT:       5223  ROW_BUFFER_MISS:      16729
 DBUS_CONGESTED:          3
 WQ ROW_BUFFER_HIT:        625  ROW_BUFFER_MISS:       7186  FULL:          0

 AVG_CONGESTED_CYCLE: 5
 All warmup complete: 2
Channel 0 Bank busy for read cycles: 0
Channel 0 Bank busy for write cycles: 0
Channel 0
Rank 0
0banks busy for read cycles: 54198588
0banks busy for write cycles: 5304
1banks busy for read cycles: 1692999
1banks busy for write cycles: 835640
2banks busy for read cycles: 362315
2banks busy for write cycles: 169547
3banks busy for read cycles: 10788
3banks busy for write cycles: 19735
4banks busy for read cycles: 9901
4banks busy for write cycles: 16497
5banks busy for read cycles: 10457
5banks busy for write cycles: 3931
6banks busy for read cycles: 10550
6banks busy for write cycles: 3674
7banks busy for read cycles: 17976
7banks busy for write cycles: 4467
8banks busy for read cycles: 5067
8banks busy for write cycles: 4096

CPU 0 Branch Prediction Accuracy: 99.9279% MPKI: 0.12968 Average ROB Occupancy at Mispredict: 53.188
Branch types
NOT_BRANCH: 41006134 82.0123%
BRANCH_DIRECT_JUMP: 541911 1.08382%
BRANCH_INDIRECT: 59690 0.11938%
BRANCH_CONDITIONAL: 5915823 11.8316%
BRANCH_DIRECT_CALL: 1003585 2.00717%
BRANCH_INDIRECT_CALL: 234499 0.468998%
BRANCH_RETURN: 1238062 2.47612%
BRANCH_OTHER: 0 0%

DRAM PAGES: 1048576
Allocated PAGES: 5748
