
*** ChampSim Multicore Out-of-Order Simulator ***

Warmup Instructions: 50000000
Simulation Instructions: 50000000
Number of CPUs: 1
LLC sets: 2048
LLC ways: 16
Off-chip DRAM Size: 4096 MB Channels: 1 Width: 64-bit Data Rate: 6400 MT/s
CPU 0 runs ../IPC-traces//server_025.champsimtrace.xz
.xz
NUM_OF_IPS_IN_CRITICAL_IP_TRAINING: 64
NUM_OF_CRITICAL_IP_TRAINING_TABLE_WAYS: 2
NUM_OF_CRITICAL_IP_TRAINING_TABLE_SETS: 32
WOBBLY_CRITICAL_IP_CACHE_SETS: 32
WOBBLY_CRITICAL_IP_CACHE_WAYS: 4
BTB has LRU replacement policy
ITLB has LRU replacement policy
DTLB has LRU replacement policy
STLB has LRU replacement policy
CPU 0 L1I next line prefetcher
L1I has LRU replacement policy
IP Table Entries: 64
L1D has LRU replacement policy
Initialize SRRIP state for L2C
Initialize DRRIP state for LLC
Heartbeat CPU 0 instructions: 10000000 cycles: 2887633 heartbeat IPC: 3.46304 cumulative IPC: 3.46304 (Simulation time: 0 hr 2 min 18 sec) 
Heartbeat CPU 0 instructions: 20000003 cycles: 5774251 heartbeat IPC: 3.46426 cumulative IPC: 3.46365 (Simulation time: 0 hr 4 min 37 sec) 
Heartbeat CPU 0 instructions: 30000001 cycles: 8657091 heartbeat IPC: 3.4688 cumulative IPC: 3.46537 (Simulation time: 0 hr 6 min 51 sec) 
Heartbeat CPU 0 instructions: 40000001 cycles: 11542761 heartbeat IPC: 3.4654 cumulative IPC: 3.46538 (Simulation time: 0 hr 9 min 9 sec) 
Heartbeat CPU 0 instructions: 50000001 cycles: 14427199 heartbeat IPC: 3.46688 cumulative IPC: 3.46568 (Simulation time: 0 hr 11 min 19 sec) 

Warmup complete CPU 0 instructions: 50000001 cycles: 14427199 (Simulation time: 0 hr 11 min 19 sec) 

% increase in all ip prefetch 419.148
% increase in all ip prefetch 0.267086
Heartbeat CPU 0 instructions: 60000000 cycles: 30834418 heartbeat IPC: 0.609488 cumulative IPC: 0.609488 (Simulation time: 0 hr 13 min 49 sec) 
Heartbeat CPU 0 instructions: 70000000 cycles: 47341429 heartbeat IPC: 0.605803 cumulative IPC: 0.60764 (Simulation time: 0 hr 16 min 18 sec) 
Heartbeat CPU 0 instructions: 80000002 cycles: 63751511 heartbeat IPC: 0.609382 cumulative IPC: 0.608219 (Simulation time: 0 hr 18 min 47 sec) 
Heartbeat CPU 0 instructions: 90000002 cycles: 78787955 heartbeat IPC: 0.665051 cumulative IPC: 0.621497 (Simulation time: 0 hr 21 min 15 sec) 
Heartbeat CPU 0 instructions: 100000003 cycles: 92659020 heartbeat IPC: 0.720925 cumulative IPC: 0.639126 (Simulation time: 0 hr 24 min 15 sec) 
Finished CPU 0 instructions: 50000002 cycles: 78231821 cumulative IPC: 0.639126 (Simulation time: 0 hr 24 min 15 sec) 

ChampSim completed all CPUs

Region of Interest Statistics

CPU 0 cumulative IPC: 0.639126 instructions: 50000002 cycles: 78231821

CPU 0 Average Load ROB stall cycles: 1.94914e+07
CPU 0 Fraction of times ROB stalled by Loads: 36.237
CPU 0 Percentage of Load stall cycles in Total stall cycles: 2.81511e+08
Issued all: 27645580
Issued LT all: 21877901
rob_not_full_when_issued_lt_all: 21630607
Issued LT one: 16821199
rob_not_full_when_issued_lt_one: 16607425
critical_ip_candidate_identification_operations: 6810268
critical_ip_candidate_identification_operation_per_cycle: 0.0870524
 Total stall cycles: 65062428
 Total load stall cycles: 183158125737644
Unique Load IPs: 13966
CPU 0 NUM of IPS identified critical: 14
CPU 0 Num of Load IPs stalling ROB: 12134
Threshold modification factor: -1
Max PIST entries: 64
Min PIST entries: 0
Avg PIST entries: 31.95
Trouble in retire width: 0.906218
MaC = Marked as critical.
lt_50_percent_before_Mac: 14
gt_90_percent_before_Mac: 0
gt_75_percent_before_Mac: 0
gt_50_percent_before_Mac: 0
stall_proportion_bin_same_before_after: 0
stall_proportion_bin_lower_before_after: 0
stall_proportion_bin_upper_before_after: 0
average_stall_proportion_before: 0.0721573
average_stall_proportion_after: 0.0782337
Critical IP stalls, total frequency: 220439
Non-critical IP stalls, total frequency: 3184695
Total Freq all stalling IPs: 3405134
Critical_IP_Detector_Accuracy_70: 0.928571
Critical_IP_Detector_Accuracy_80: 0.928571
Critical_IP_Detector_Accuracy_90: 1
Critical_IP_Detector_Coverage_70: 0.00923295
Critical_IP_Detector_Coverage_80: 0.00608899
Critical_IP_Detector_Coverage_90: 0.00416419
stat_90_percent_critical_ip_stalls_freq: 3064676
stat_90_percent_non_critical_ip_stalls_freq: 340458
AVERAGE_ROB_Occupancy_90_Percent_Critical_IP_Stalls: 50.6272
AVERAGE_ROB_Occupancy_90_Percent_Non_Critical_IP_Stalls: 26.5057
Critical_IP_ROB_Stalls_Bucket_0: 29146
Non-critical_IP_ROB_Stalls_Bucket_0: 2248222
Critical_IP_ROB_Stalls_Bucket_1: 96034
Non-critical_IP_ROB_Stalls_Bucket_1: 629138
Critical_IP_ROB_Stalls_Bucket_2: 59620
Non-critical_IP_ROB_Stalls_Bucket_2: 218876
Critical_IP_ROB_Stalls_Bucket_3: 14442
Non-critical_IP_ROB_Stalls_Bucket_3: 64462
Critical_IP_ROB_Stalls_Bucket_4: 5028
Non-critical_IP_ROB_Stalls_Bucket_4: 14872
Critical_IP_ROB_Stalls_Bucket_5: 4029
Non-critical_IP_ROB_Stalls_Bucket_5: 5730
Critical_IP_ROB_Stalls_Bucket_6: 12140
Non-critical_IP_ROB_Stalls_Bucket_6: 3395
0 => IPs accounting for >50 percent of stalls, 1 => 55, 2 => 60, 3 => 65 and so on till 90.
percent50: 50.0081 num IPs:  430
percent55: 55.0206 num IPs: 620
percent60: 60.0053 num IPs: 868
percent65: 65.0036 num IPs: 1132
percent70: 70.0162 num IPs: 1408
percent75: 75.0023 num IPs: 1751
percent80: 80.0018 num IPs: 2135
percent85: 85.008 num IPs: 2608
percent90: 90.0007 num IPs: 3362
Critical_ROB_Stalls_Percent_0_Bucket_0: 866101
Non-critical_ROB_Stalls_Percent_0_Bucket_0: 1411267
Critical_ROB_Stalls_Percent_0_Bucket_1: 502980
Non-critical_ROB_Stalls_Percent_0_Bucket_1: 222192
Critical_ROB_Stalls_Percent_0_Bucket_2: 222918
Non-critical_ROB_Stalls_Percent_0_Bucket_2: 55578
Critical_ROB_Stalls_Percent_0_Bucket_3: 70931
Non-critical_ROB_Stalls_Percent_0_Bucket_3: 7973
Critical_ROB_Stalls_Percent_0_Bucket_4: 17258
Non-critical_ROB_Stalls_Percent_0_Bucket_4: 2642
Critical_ROB_Stalls_Percent_0_Bucket_5: 8522
Non-critical_ROB_Stalls_Percent_0_Bucket_5: 1237
Critical_ROB_Stalls_Percent_0_Bucket_6: 14131
Non-critical_ROB_Stalls_Percent_0_Bucket_6: 1404
Critical_ROB_Stalls_Percent_1_Bucket_0: 986405
Non-critical_ROB_Stalls_Percent_1_Bucket_0: 1290963
Critical_ROB_Stalls_Percent_1_Bucket_1: 540816
Non-critical_ROB_Stalls_Percent_1_Bucket_1: 184356
Critical_ROB_Stalls_Percent_1_Bucket_2: 233252
Non-critical_ROB_Stalls_Percent_1_Bucket_2: 45244
Critical_ROB_Stalls_Percent_1_Bucket_3: 72437
Non-critical_ROB_Stalls_Percent_1_Bucket_3: 6467
Critical_ROB_Stalls_Percent_1_Bucket_4: 17811
Non-critical_ROB_Stalls_Percent_1_Bucket_4: 2089
Critical_ROB_Stalls_Percent_1_Bucket_5: 8607
Non-critical_ROB_Stalls_Percent_1_Bucket_5: 1152
Critical_ROB_Stalls_Percent_1_Bucket_6: 14199
Non-critical_ROB_Stalls_Percent_1_Bucket_6: 1336
Critical_ROB_Stalls_Percent_2_Bucket_0: 1121082
Non-critical_ROB_Stalls_Percent_2_Bucket_0: 1156286
Critical_ROB_Stalls_Percent_2_Bucket_1: 568777
Non-critical_ROB_Stalls_Percent_2_Bucket_1: 156395
Critical_ROB_Stalls_Percent_2_Bucket_2: 238726
Non-critical_ROB_Stalls_Percent_2_Bucket_2: 39770
Critical_ROB_Stalls_Percent_2_Bucket_3: 73632
Non-critical_ROB_Stalls_Percent_2_Bucket_3: 5272
Critical_ROB_Stalls_Percent_2_Bucket_4: 18217
Non-critical_ROB_Stalls_Percent_2_Bucket_4: 1683
Critical_ROB_Stalls_Percent_2_Bucket_5: 8617
Non-critical_ROB_Stalls_Percent_2_Bucket_5: 1142
Critical_ROB_Stalls_Percent_2_Bucket_6: 14212
Non-critical_ROB_Stalls_Percent_2_Bucket_6: 1323
Critical_ROB_Stalls_Percent_3_Bucket_0: 1241611
Non-critical_ROB_Stalls_Percent_3_Bucket_0: 1035757
Critical_ROB_Stalls_Percent_3_Bucket_1: 607577
Non-critical_ROB_Stalls_Percent_3_Bucket_1: 117595
Critical_ROB_Stalls_Percent_3_Bucket_2: 248800
Non-critical_ROB_Stalls_Percent_3_Bucket_2: 29696
Critical_ROB_Stalls_Percent_3_Bucket_3: 74403
Non-critical_ROB_Stalls_Percent_3_Bucket_3: 4501
Critical_ROB_Stalls_Percent_3_Bucket_4: 18231
Non-critical_ROB_Stalls_Percent_3_Bucket_4: 1669
Critical_ROB_Stalls_Percent_3_Bucket_5: 8618
Non-critical_ROB_Stalls_Percent_3_Bucket_5: 1141
Critical_ROB_Stalls_Percent_3_Bucket_6: 14212
Non-critical_ROB_Stalls_Percent_3_Bucket_6: 1323
Critical_ROB_Stalls_Percent_4_Bucket_0: 1390076
Non-critical_ROB_Stalls_Percent_4_Bucket_0: 887292
Critical_ROB_Stalls_Percent_4_Bucket_1: 626919
Non-critical_ROB_Stalls_Percent_4_Bucket_1: 98253
Critical_ROB_Stalls_Percent_4_Bucket_2: 251340
Non-critical_ROB_Stalls_Percent_4_Bucket_2: 27156
Critical_ROB_Stalls_Percent_4_Bucket_3: 74556
Non-critical_ROB_Stalls_Percent_4_Bucket_3: 4348
Critical_ROB_Stalls_Percent_4_Bucket_4: 18419
Non-critical_ROB_Stalls_Percent_4_Bucket_4: 1481
Critical_ROB_Stalls_Percent_4_Bucket_5: 8618
Non-critical_ROB_Stalls_Percent_4_Bucket_5: 1141
Critical_ROB_Stalls_Percent_4_Bucket_6: 14212
Non-critical_ROB_Stalls_Percent_4_Bucket_6: 1323
Critical_ROB_Stalls_Percent_5_Bucket_0: 1534823
Non-critical_ROB_Stalls_Percent_5_Bucket_0: 742545
Critical_ROB_Stalls_Percent_5_Bucket_1: 645717
Non-critical_ROB_Stalls_Percent_5_Bucket_1: 79455
Critical_ROB_Stalls_Percent_5_Bucket_2: 256400
Non-critical_ROB_Stalls_Percent_5_Bucket_2: 22096
Critical_ROB_Stalls_Percent_5_Bucket_3: 75407
Non-critical_ROB_Stalls_Percent_5_Bucket_3: 3497
Critical_ROB_Stalls_Percent_5_Bucket_4: 18609
Non-critical_ROB_Stalls_Percent_5_Bucket_4: 1291
Critical_ROB_Stalls_Percent_5_Bucket_5: 8727
Non-critical_ROB_Stalls_Percent_5_Bucket_5: 1032
Critical_ROB_Stalls_Percent_5_Bucket_6: 14242
Non-critical_ROB_Stalls_Percent_5_Bucket_6: 1293
Critical_ROB_Stalls_Percent_6_Bucket_0: 1678123
Non-critical_ROB_Stalls_Percent_6_Bucket_0: 599245
Critical_ROB_Stalls_Percent_6_Bucket_1: 664507
Non-critical_ROB_Stalls_Percent_6_Bucket_1: 60665
Critical_ROB_Stalls_Percent_6_Bucket_2: 264025
Non-critical_ROB_Stalls_Percent_6_Bucket_2: 14471
Critical_ROB_Stalls_Percent_6_Bucket_3: 75792
Non-critical_ROB_Stalls_Percent_6_Bucket_3: 3112
Critical_ROB_Stalls_Percent_6_Bucket_4: 18703
Non-critical_ROB_Stalls_Percent_6_Bucket_4: 1197
Critical_ROB_Stalls_Percent_6_Bucket_5: 8756
Non-critical_ROB_Stalls_Percent_6_Bucket_5: 1003
Critical_ROB_Stalls_Percent_6_Bucket_6: 14270
Non-critical_ROB_Stalls_Percent_6_Bucket_6: 1265
Critical_ROB_Stalls_Percent_7_Bucket_0: 1824162
Non-critical_ROB_Stalls_Percent_7_Bucket_0: 453206
Critical_ROB_Stalls_Percent_7_Bucket_1: 683632
Non-critical_ROB_Stalls_Percent_7_Bucket_1: 41540
Critical_ROB_Stalls_Percent_7_Bucket_2: 267710
Non-critical_ROB_Stalls_Percent_7_Bucket_2: 10786
Critical_ROB_Stalls_Percent_7_Bucket_3: 76599
Non-critical_ROB_Stalls_Percent_7_Bucket_3: 2305
Critical_ROB_Stalls_Percent_7_Bucket_4: 18889
Non-critical_ROB_Stalls_Percent_7_Bucket_4: 1011
Critical_ROB_Stalls_Percent_7_Bucket_5: 9052
Non-critical_ROB_Stalls_Percent_7_Bucket_5: 707
Critical_ROB_Stalls_Percent_7_Bucket_6: 14605
Non-critical_ROB_Stalls_Percent_7_Bucket_6: 930
Critical_ROB_Stalls_Percent_8_Bucket_0: 1976793
Non-critical_ROB_Stalls_Percent_8_Bucket_0: 300575
Critical_ROB_Stalls_Percent_8_Bucket_1: 697224
Non-critical_ROB_Stalls_Percent_8_Bucket_1: 27948
Critical_ROB_Stalls_Percent_8_Bucket_2: 270661
Non-critical_ROB_Stalls_Percent_8_Bucket_2: 7835
Critical_ROB_Stalls_Percent_8_Bucket_3: 77054
Non-critical_ROB_Stalls_Percent_8_Bucket_3: 1850
Critical_ROB_Stalls_Percent_8_Bucket_4: 19083
Non-critical_ROB_Stalls_Percent_8_Bucket_4: 817
Critical_ROB_Stalls_Percent_8_Bucket_5: 9142
Non-critical_ROB_Stalls_Percent_8_Bucket_5: 617
Critical_ROB_Stalls_Percent_8_Bucket_6: 14719
Non-critical_ROB_Stalls_Percent_8_Bucket_6: 816
Average ROB occupancy Load Stall Begin: 39.954
Average ROB occupancy Load Stall End: 48.2154
Min ROB occupancy Load Stall Begin: 1
Max ROB occupancy Load Stall Begin: 352
Min ROB occupancy Load Stall End: 1
Max ROB occupancy Load Stall End: 352
Average ROB occupancy Critical Load Stall Begin: 101.286
Average ROB occupancy Critical Load Stall End: 114.263
Min ROB occupancy Critical Load Stall Begin: 2
Max ROB occupancy Critical Load Stall Begin: 352
Min ROB occupancy Critical Load Stall End: 2
Max ROB occupancy Critical Load Stall End: 352
 ROB Load Stall Begin Bucket Count 0: 2512176
 ROB Load Stall End Bucket Count 0: 2277368
 ROB Critical Load Stall Begin Bucket Count 0: 40529
 ROB Critical Load Stall End Bucket Count 0: 24431
 ROB Load Stall Begin Bucket Count 1: 590073
 ROB Load Stall End Bucket Count 1: 725172
 ROB Critical Load Stall Begin Bucket Count 1: 98553
 ROB Critical Load Stall End Bucket Count 1: 91531
 ROB Load Stall Begin Bucket Count 2: 207532
 ROB Load Stall End Bucket Count 2: 278496
 ROB Critical Load Stall Begin Bucket Count 2: 39964
 ROB Critical Load Stall End Bucket Count 2: 57538
 ROB Load Stall Begin Bucket Count 3: 55908
 ROB Load Stall End Bucket Count 3: 78904
 ROB Critical Load Stall Begin Bucket Count 3: 9271
 ROB Critical Load Stall End Bucket Count 3: 13922
 ROB Load Stall Begin Bucket Count 4: 16440
 ROB Load Stall End Bucket Count 4: 19900
 ROB Critical Load Stall Begin Bucket Count 4: 4492
 ROB Critical Load Stall End Bucket Count 4: 4984
 ROB Load Stall Begin Bucket Count 5: 8851
 ROB Load Stall End Bucket Count 5: 9759
 ROB Critical Load Stall Begin Bucket Count 5: 3991
 ROB Critical Load Stall End Bucket Count 5: 4021
 ROB Load Stall Begin Bucket Count 6: 14154
 ROB Load Stall End Bucket Count 6: 15535
 ROB Critical Load Stall Begin Bucket Count 6: 11682
 ROB Critical Load Stall End Bucket Count 6: 12055
PIST Tag Read Accesses: 2347166
PIST Read Accesses: 1173583
PIST Tag Write Accesses: 2347166
PIST Write Accesses: 1173583
Criticality detector called times: 3196652
Max global_stall_cycles_count: 2561735
Threshold Modified: 1 times, factor: -1
Sturdy critical IP cache stats: 
 Unused entries: 0
CIC Tag Read Accesses: 0
CIC Read Accesses: 0
CIC Tag Write Accesses: 0
CIC Write Accesses: 0
Wobbly critical IP cache stats: 
 Unused entries: 114
CIC Tag Read Accesses: 85365747
CIC Read Accesses: 0
CIC Tag Write Accesses: 13925
CIC Write Accesses: 0
ITLB TOTAL     ACCESS:    9977437  HIT:    9386623  MISS:     590814  HIT %:    94.0785  MISS %:     5.9215   MPKI: 11.8163
ITLB LOAD TRANSLATION ACCESS:    8172683  HIT:    8095621  MISS:      77062  HIT %:    99.0571  MISS %:   0.942922   MPKI: 1.54124
ITLB TRANSLATION FROM L1D PREFETCHER ACCESS:    1804754  HIT:    1291002  MISS:     513752  HIT %:    71.5334  MISS %:    28.4666   MPKI: 10.275
ITLBprefetch_cycle_count: 0 prefetches_per_prefetch_cycle: -nan
ITLB PREFETCH  REQUESTED:          0  ISSUED:          0  USEFUL:     409892  USELESS:     103861
ITLB USEFUL LOAD PREFETCHES:     409892 PREFETCH ISSUED TO LOWER LEVEL:          0  ACCURACY: inf
ITLB TIMELY PREFETCHES:     409892 LATE PREFETCHES: 176 DROPPED PREFETCHES: 4074
ITLB PREFETCHES SAME FILL-ORIGIN LEVEL: 0 DIFFERENT FILL-ORIGIN LEVEL: 0
ITLB AVERAGE MISS LATENCY: 15871.7 cycles
ITLB RQ	ACCESS:   14629114	FORWARD:          0	MERGED:    4612613	TO_CACHE:   10016501

DTLB TOTAL     ACCESS:   11439706  HIT:   10987492  MISS:     452214  HIT %:     96.047  MISS %:    3.95302   MPKI: 9.04428
DTLB LOAD TRANSLATION ACCESS:   11439706  HIT:   10987492  MISS:     452214  HIT %:     96.047  MISS %:    3.95302   MPKI: 9.04428
DTLBprefetch_cycle_count: 0 prefetches_per_prefetch_cycle: -nan
DTLB PREFETCH  REQUESTED:          0  ISSUED:          0  USEFUL:          0  USELESS:          0
DTLB USEFUL LOAD PREFETCHES:          0 PREFETCH ISSUED TO LOWER LEVEL:          0  ACCURACY: -nan
DTLB TIMELY PREFETCHES:          0 LATE PREFETCHES: 0 DROPPED PREFETCHES: 0
DTLB PREFETCHES SAME FILL-ORIGIN LEVEL: 0 DIFFERENT FILL-ORIGIN LEVEL: 0
DTLB AVERAGE MISS LATENCY: 9.30793 cycles
DTLB RQ	ACCESS:   14982157	FORWARD:          0	MERGED:    3519145	TO_CACHE:   11463012

STLB TOTAL     ACCESS:    1060181  HIT:    1058001  MISS:       2180  HIT %:    99.7944  MISS %:   0.205625   MPKI: 0.0436
STLB LOAD TRANSLATION ACCESS:     529100  HIT:     527211  MISS:       1889  HIT %:     99.643  MISS %:   0.357021   MPKI: 0.03778
STLB TRANSLATION FROM L1D PREFETCHER ACCESS:     531081  HIT:     530790  MISS:        291  HIT %:    99.9452  MISS %:  0.0547939   MPKI: 0.00582
STLBprefetch_cycle_count: 0 prefetches_per_prefetch_cycle: -nan
STLB PREFETCH  REQUESTED:          0  ISSUED:          0  USEFUL:        258  USELESS:         33
STLB USEFUL LOAD PREFETCHES:        258 PREFETCH ISSUED TO LOWER LEVEL:          0  ACCURACY: inf
STLB TIMELY PREFETCHES:        258 LATE PREFETCHES: 0 DROPPED PREFETCHES: 4074
STLB PREFETCHES SAME FILL-ORIGIN LEVEL: 0 DIFFERENT FILL-ORIGIN LEVEL: 0
STLB AVERAGE MISS LATENCY: 71.1849 cycles
STLB RQ	ACCESS:    1071444	FORWARD:          0	MERGED:       7189	TO_CACHE:    1064255

STLB Hit, L1D data hit: 0
STLB Hit, L2C data hit: 0
STLB Hit, LLC data hit: 0
STLB Hit, LLC data miss: 0
STLB STLB hints to L2: 0
L1D TOTAL     ACCESS:   14570910  HIT:   13663196  MISS:     907714  HIT %:    93.7704  MISS %:    6.22963   MPKI: 18.1543
L1D LOAD      ACCESS:    8072605  HIT:    7425786  MISS:     646819  HIT %:    91.9875  MISS %:    8.01252   MPKI: 12.9364
L1D RFO       ACCESS:    6476054  HIT:    6224134  MISS:     251920  HIT %:      96.11  MISS %:    3.89002   MPKI: 5.0384
L1D PREFETCH  ACCESS:      22251  HIT:      13276  MISS:       8975  HIT %:    59.6647  MISS %:    40.3353   MPKI: 0.1795
L1Dprefetch_cycle_count: 18961 prefetches_per_prefetch_cycle: 2.5678
L1D PREFETCH  REQUESTED:      48688  ISSUED:      48688  USEFUL:       4022  USELESS:       4953
L1D USEFUL LOAD PREFETCHES:       4022 PREFETCH ISSUED TO LOWER LEVEL:      10440  ACCURACY: 38.5249
L1D TIMELY PREFETCHES:       4022 LATE PREFETCHES: 1463 DROPPED PREFETCHES: 0
L1D PREFETCHES SAME FILL-ORIGIN LEVEL: 10440 DIFFERENT FILL-ORIGIN LEVEL: 0
L1D AVERAGE MISS LATENCY: 63938.8 cycles
L1D RQ	ACCESS:   11582461	FORWARD:          0	MERGED:    3332636	TO_CACHE:    8096860
L1D WQ	ACCESS:    6957599	FORWARD:     152969	MERGED:      72302	TO_CACHE:    6885297
L1D PQ	ACCESS:      24346	FORWARD:          0	MERGED:          0	TO_CACHE:      24342

L1D UNIQUE REGIONS ACCESSED: 0
L1D REGIONS CONFLICTS: 0
L1D Cross Page Prefetch Requests: 0
L1D Same Page Prefetch Requests: 30705
L1D ROI Sum of L1D PQ occupancy: 345088
L1D PREFETCHES PUSHED FROM L2C: 0
L1I TOTAL     ACCESS:   14498718  HIT:   10873656  MISS:    3625062  HIT %:    74.9974  MISS %:    25.0026   MPKI: 72.5012
L1I LOAD      ACCESS:    9573653  HIT:    9342271  MISS:     231382  HIT %:    97.5831  MISS %:    2.41686   MPKI: 4.62764
L1I PREFETCH  ACCESS:    4925065  HIT:    1531385  MISS:    3393680  HIT %:    31.0937  MISS %:    68.9063   MPKI: 67.8736
L1Iprefetch_cycle_count: 0 prefetches_per_prefetch_cycle: inf
L1I PREFETCH  REQUESTED:    5158592  ISSUED:    5148554  USEFUL:    2306824  USELESS:    1086890
L1I USEFUL LOAD PREFETCHES:    2306824 PREFETCH ISSUED TO LOWER LEVEL:    3417142  ACCURACY: 67.5074
L1I TIMELY PREFETCHES:    2306824 LATE PREFETCHES: 23460 DROPPED PREFETCHES: 10072
L1I PREFETCHES SAME FILL-ORIGIN LEVEL: 3417142 DIFFERENT FILL-ORIGIN LEVEL: 0
L1I AVERAGE MISS LATENCY: 327681 cycles
L1I RQ	ACCESS:   13674504	FORWARD:          0	MERGED:    4080443	TO_CACHE:    9594061
L1I PQ	ACCESS:    5148554	FORWARD:          0	MERGED:     113501	TO_CACHE:    5035053

BTB TOTAL     ACCESS:    6187548  HIT:    4393594  MISS:    1793954  HIT %:     71.007  MISS %:     28.993   MPKI: 35.8791
BTB BRANCH_DIRECT_JUMP	ACCESS:     531697  HIT:     378294  MISS:     153403
BTB BRANCH_INDIRECT	ACCESS:     199023  HIT:     166589  MISS:      32434
BTB BRANCH_CONDITIONAL	ACCESS:    3068015  HIT:    2579394  MISS:     488621
BTB BRANCH_DIRECT_CALL	ACCESS:    1010905  HIT:     656135  MISS:     354770
BTB BRANCH_INDIRECT_CALL	ACCESS:     183501  HIT:     115238  MISS:      68263
BTB BRANCH_RETURN	ACCESS:    1194407  HIT:     497944  MISS:     696463
BTB BRANCH_OTHER ACCESS:          0  HIT:          0  MISS:          0

L2C TOTAL     ACCESS:    4990648  HIT:    4532343  MISS:     458305  HIT %:    90.8167  MISS %:    9.18328   MPKI: 9.1661
L2C LOAD      ACCESS:     853258  HIT:     722669  MISS:     130589  HIT %:    84.6953  MISS %:    15.3047   MPKI: 2.61178
L2C DATA LOAD MPKI: 2.05654
L2C INSTRUCTION LOAD MPKI: 0.55524
L2C RFO       ACCESS:     251918  HIT:     199033  MISS:      52885  HIT %:    79.0071  MISS %:    20.9929   MPKI: 1.0577
L2C PREFETCH  ACCESS:    3427582  HIT:    3176577  MISS:     251005  HIT %:    92.6769  MISS %:    7.32309   MPKI: 5.0201
L2C DATA PREFETCH MPKI: 0.13986
L2C INSTRUCTION PREFETCH MPKI: 4.88024
L2C WRITEBACK ACCESS:     451015  HIT:     429056  MISS:      21959  HIT %:    95.1312  MISS %:     4.8688   MPKI: 0.43918
L2C LOAD TRANSLATION ACCESS:       2032  HIT:        538  MISS:       1494  HIT %:    26.4764  MISS %:    73.5236   MPKI: 0.02988
L2C TRANSLATION FROM L1D PREFETCHER ACCESS:       4843  HIT:       4470  MISS:        373  HIT %:    92.2982  MISS %:    7.70184   MPKI: 0.00746
L2Cprefetch_cycle_count: 0 prefetches_per_prefetch_cycle: -nan
L2C PREFETCH  REQUESTED:          0  ISSUED:          0  USEFUL:       5179  USELESS:     246376
L2C USEFUL LOAD PREFETCHES:       5179 PREFETCH ISSUED TO LOWER LEVEL:     251005  ACCURACY: 2.06331
L2C TIMELY PREFETCHES:       5179 LATE PREFETCHES: 0 DROPPED PREFETCHES: 0
L2C PREFETCHES SAME FILL-ORIGIN LEVEL: 0 DIFFERENT FILL-ORIGIN LEVEL: 0
L2C AVERAGE MISS LATENCY: 36.326 cycles
L2C RQ	ACCESS:    1112071	FORWARD:          0	MERGED:          0	TO_CACHE:    1112051
L2C WQ	ACCESS:     451015	FORWARD:         20	MERGED:          0	TO_CACHE:     451015
L2C PQ	ACCESS:    3427582	FORWARD:          0	MERGED:          0	TO_CACHE:    3427582

L2C Instructions Evicting Data 103523
L2C Translations Evicting Data 1077
L2C Data Evicting Data 72371
L2C Instructions Evicting Instructions 167522
L2C Translations Evicting Instructions 768
L2C Data Evicting Instructions 89299
L2C Instructions Evicting Translations 729
L2C Translations Evicting Translations 22
L2C Data Evicting Translations 1035
L2C Dense regions hint from L2: 0
PSCL5 TOTAL     ACCESS:       6254  HIT:       6254  MISS:          0  HIT %:        100  MISS %:          0   MPKI: 0
PSCL5 LOAD TRANSLATION ACCESS:       1889  HIT:       1889  MISS:          0  HIT %:        100  MISS %:          0   MPKI: 0
PSCL5 TRANSLATION FROM L1D PREFETCHER ACCESS:       4365  HIT:       4365  MISS:          0  HIT %:        100  MISS %:          0   MPKI: 0
PSCL5prefetch_cycle_count: 0 prefetches_per_prefetch_cycle: -nan
PSCL5 PREFETCH  REQUESTED:          0  ISSUED:          0  USEFUL:          0  USELESS:          0
PSCL5 USEFUL LOAD PREFETCHES:          0 PREFETCH ISSUED TO LOWER LEVEL:          0  ACCURACY: -nan
PSCL5 TIMELY PREFETCHES:          0 LATE PREFETCHES: 0 DROPPED PREFETCHES: 0
PSCL5 PREFETCHES SAME FILL-ORIGIN LEVEL: 0 DIFFERENT FILL-ORIGIN LEVEL: 0

PSCL4 TOTAL     ACCESS:       4547  HIT:       4526  MISS:         21  HIT %:    99.5382  MISS %:   0.461843   MPKI: 0.00042
PSCL4 LOAD TRANSLATION ACCESS:       1408  HIT:       1387  MISS:         21  HIT %:    98.5085  MISS %:    1.49148   MPKI: 0.00042
PSCL4 TRANSLATION FROM L1D PREFETCHER ACCESS:       3139  HIT:       3139  MISS:          0  HIT %:        100  MISS %:          0   MPKI: 0
PSCL4prefetch_cycle_count: 0 prefetches_per_prefetch_cycle: -nan
PSCL4 PREFETCH  REQUESTED:          0  ISSUED:          0  USEFUL:          0  USELESS:          0
PSCL4 USEFUL LOAD PREFETCHES:          0 PREFETCH ISSUED TO LOWER LEVEL:          0  ACCURACY: -nan
PSCL4 TIMELY PREFETCHES:          0 LATE PREFETCHES: 0 DROPPED PREFETCHES: 0
PSCL4 PREFETCHES SAME FILL-ORIGIN LEVEL: 0 DIFFERENT FILL-ORIGIN LEVEL: 0

PSCL3 TOTAL     ACCESS:       5912  HIT:       5885  MISS:         27  HIT %:    99.5433  MISS %:   0.456698   MPKI: 0.00054
PSCL3 LOAD TRANSLATION ACCESS:       1797  HIT:       1770  MISS:         27  HIT %:    98.4975  MISS %:     1.5025   MPKI: 0.00054
PSCL3 TRANSLATION FROM L1D PREFETCHER ACCESS:       4115  HIT:       4115  MISS:          0  HIT %:        100  MISS %:          0   MPKI: 0
PSCL3prefetch_cycle_count: 0 prefetches_per_prefetch_cycle: -nan
PSCL3 PREFETCH  REQUESTED:          0  ISSUED:          0  USEFUL:          0  USELESS:          0
PSCL3 USEFUL LOAD PREFETCHES:          0 PREFETCH ISSUED TO LOWER LEVEL:          0  ACCURACY: -nan
PSCL3 TIMELY PREFETCHES:          0 LATE PREFETCHES: 0 DROPPED PREFETCHES: 0
PSCL3 PREFETCHES SAME FILL-ORIGIN LEVEL: 0 DIFFERENT FILL-ORIGIN LEVEL: 0

PSCL2 TOTAL     ACCESS:       5907  HIT:       5771  MISS:        136  HIT %:    97.6976  MISS %:    2.30235   MPKI: 0.00272
PSCL2 LOAD TRANSLATION ACCESS:       1913  HIT:       1777  MISS:        136  HIT %:    92.8907  MISS %:    7.10925   MPKI: 0.00272
PSCL2 TRANSLATION FROM L1D PREFETCHER ACCESS:       3994  HIT:       3994  MISS:          0  HIT %:        100  MISS %:          0   MPKI: 0
PSCL2prefetch_cycle_count: 0 prefetches_per_prefetch_cycle: -nan
PSCL2 PREFETCH  REQUESTED:          0  ISSUED:          0  USEFUL:          0  USELESS:          0
PSCL2 USEFUL LOAD PREFETCHES:          0 PREFETCH ISSUED TO LOWER LEVEL:          0  ACCURACY: -nan
PSCL2 TIMELY PREFETCHES:          0 LATE PREFETCHES: 0 DROPPED PREFETCHES: 0
PSCL2 PREFETCHES SAME FILL-ORIGIN LEVEL: 0 DIFFERENT FILL-ORIGIN LEVEL: 0

LLC TOTAL     ACCESS:     510453  HIT:     487819  MISS:      22634  HIT %:    95.5659  MISS %:     4.4341   MPKI: 0.45268
LLC LOAD      ACCESS:     130588  HIT:     122335  MISS:       8253  HIT %:    93.6801  MISS %:    6.31988   MPKI: 0.16506
LLC RFO       ACCESS:      52885  HIT:      41725  MISS:      11160  HIT %:    78.8976  MISS %:    21.1024   MPKI: 0.2232
LLC PREFETCH  ACCESS:     251005  HIT:     248170  MISS:       2835  HIT %:    98.8705  MISS %:    1.12946   MPKI: 0.0567
LLC WRITEBACK ACCESS:      74108  HIT:      73836  MISS:        272  HIT %:     99.633  MISS %:   0.367032   MPKI: 0.00544
LLC LOAD TRANSLATION ACCESS:       1494  HIT:       1389  MISS:        105  HIT %:    92.9719  MISS %:    7.02811   MPKI: 0.0021
LLC TRANSLATION FROM L1D PREFETCHER ACCESS:        373  HIT:        364  MISS:          9  HIT %:    97.5871  MISS %:    2.41287   MPKI: 0.00018
LLCprefetch_cycle_count: 0 prefetches_per_prefetch_cycle: -nan
LLC PREFETCH  REQUESTED:          0  ISSUED:          0  USEFUL:        228  USELESS:       1588
LLC USEFUL LOAD PREFETCHES:        228 PREFETCH ISSUED TO LOWER LEVEL:       2835  ACCURACY: 8.04233
LLC TIMELY PREFETCHES:        228 LATE PREFETCHES: 0 DROPPED PREFETCHES: 0
LLC PREFETCHES SAME FILL-ORIGIN LEVEL: 0 DIFFERENT FILL-ORIGIN LEVEL: 0
LLC AVERAGE MISS LATENCY: 156.003 cycles
LLC RQ	ACCESS:     185341	FORWARD:          0	MERGED:          0	TO_CACHE:     185340
LLC WQ	ACCESS:      74108	FORWARD:          1	MERGED:          0	TO_CACHE:      74108
LLC PQ	ACCESS:     251005	FORWARD:          0	MERGED:          0	TO_CACHE:     251005

LLC Dense regions hint to LLC: 0

RAW hits: 1158184
Loads Generated: 12740644
Loads sent to L1D: 11582461
Stores Generated: 6957596
Stores sent to L1D: 6957599
Major fault: 0 Minor fault: 2563
Allocated PAGES: 2563
I-Shadow cache 408 bytes
Touched + WorthPF tables 6144 bytes 
MMA filter 174 bytes 
FNL filter 272 bytes 
TOTAL PREFETCHER STORAGE SIZE: 25174 bytes
CPU 0 L1I next line prefetcher final stats

total_pref_operate_instances_l1: 572395
dynamic_config_counter_instances_1: 191068
dynamic_config_counter_instances_2: 12431
dynamic_config_counter_instances_3: 13397
dynamic_config_counter_instances_4: 8687
dynamic_config_counter_instances_5: 346812
stream: 
stream:times selected: 126768
stream:pref_filled: 3895
stream:pref_useful: 1004
stream:pref_late: 990
stream:misses: 123
stream:misses_by_poll: 0

CS: 
CS:times selected: 10691
CS:pref_filled: 4707
CS:pref_useful: 3154
CS:pref_late: 843
CS:misses: 1255
CS:misses_by_poll: 21

CPLX: 
CPLX:times selected: 115491
CPLX:pref_filled: 2520
CPLX:pref_useful: 682
CPLX:pref_late: 257
CPLX:misses: 2196
CPLX:misses_by_poll: 0

NL_L1: 
NL:times selected: 5054
NL:pref_filled: 608
NL:pref_useful: 94
NL:pref_late: 46
NL:misses: 319
NL:misses_by_poll: 0

total selections: 258004
total_filled: 8975
total_useful: 4022
total_late: 2236
total_polluted: 21
total_misses_after_warmup: 32400
conflicts: 136913
Degree Incremented Times: 0
Degree Decremented Times: 3652

L1 IP Table Write Accesses: 413256
L1 IP Table Read Accesses: 276343
L1 RST Write Accesses: 122104
L1 RST Read Accesses: 244208
L1 CSPT Write Accesses: 122104
L1 CSPT Read Accesses: 235822
L1 RR Filter Tag Write Accesses: 24346
L1 RR Filter Tag Read Accesses: 7581362
L1 IP Table Tag Write Accesses: 572395
L1 IP Table Tag Read Accesses: 572395
L1 RST Tag Write Accesses: 0
L1 RST Tag Read Accesses: 1154173
L1 RR Filter Write Accesses: 0
L1 RR Filter Read Accesses: 333915
test: 21383

DRAM Statistics
 CHANNEL 0
 RQ ROW_BUFFER_HIT:       8064  ROW_BUFFER_MISS:      14295
 DBUS_CONGESTED:          0
 WQ ROW_BUFFER_HIT:       1140  ROW_BUFFER_MISS:       9982  FULL:          0

 AVG_CONGESTED_CYCLE: -
 All warmup complete: 2
Channel 0 Bank busy for read cycles: 0
Channel 0 Bank busy for write cycles: 0
Channel 0
Rank 0
0banks busy for read cycles: 75799772
0banks busy for write cycles: 2820
1banks busy for read cycles: 1175358
1banks busy for write cycles: 394324
2banks busy for read cycles: 129703
2banks busy for write cycles: 123745
3banks busy for read cycles: 53428
3banks busy for write cycles: 89693
4banks busy for read cycles: 27255
4banks busy for write cycles: 70805
5banks busy for read cycles: 21219
5banks busy for write cycles: 58650
6banks busy for read cycles: 23089
6banks busy for write cycles: 55286
7banks busy for read cycles: 23746
7banks busy for write cycles: 53304
8banks busy for read cycles: 55978
8banks busy for write cycles: 73647

CPU 0 Branch Prediction Accuracy: 99.8142% MPKI: 0.34676 Average ROB Occupancy at Mispredict: 70.2679
Branch types
NOT_BRANCH: 40668673 81.3373%
BRANCH_DIRECT_JUMP: 531697 1.06339%
BRANCH_INDIRECT: 199023 0.398046%
BRANCH_CONDITIONAL: 6211453 12.4229%
BRANCH_DIRECT_CALL: 1010905 2.02181%
BRANCH_INDIRECT_CALL: 183501 0.367002%
BRANCH_RETURN: 1194407 2.38881%
BRANCH_OTHER: 0 0%

DRAM PAGES: 1048576
Allocated PAGES: 2563
