Initialize SIGNATURE TABLE
ST_SET: 1
ST_WAY: 256
ST_TAG_BIT: 16
ST_TAG_MASK: ffff

Initialize PATTERN TABLE
PT_SET: 512
PT_WAY: 4
SIG_DELTA_BIT: 7
C_SIG_BIT: 4
C_DELTA_BIT: 4

Initialize PREFETCH FILTER
FILTER_SET: 1024

*** ChampSim Multicore Out-of-Order Simulator ***

Warmup Instructions: 50000000
Simulation Instructions: 50000000
Number of CPUs: 1
LLC sets: 2048
LLC ways: 16
Off-chip DRAM Size: 4096 MB Channels: 1 Width: 64-bit Data Rate: 6400 MT/s
CPU 0 runs ../IPC-traces//server_020.champsimtrace.xz
.xz
NUM_OF_IPS_IN_CRITICAL_IP_TRAINING: 64
NUM_OF_CRITICAL_IP_TRAINING_TABLE_WAYS: 2
NUM_OF_CRITICAL_IP_TRAINING_TABLE_SETS: 32
WOBBLY_CRITICAL_IP_CACHE_SETS: 32
WOBBLY_CRITICAL_IP_CACHE_WAYS: 4
BTB has LRU replacement policy
ITLB has LRU replacement policy
DTLB has LRU replacement policy
STLB has LRU replacement policy
CPU 0 L1I next line prefetcher
L1I has LRU replacement policy
L1D has LRU replacement policy
Initialize SRRIP state for L2C
Initialize DRRIP state for LLC
Heartbeat CPU 0 instructions: 10000003 cycles: 3289854 heartbeat IPC: 3.03965 cumulative IPC: 3.03965 (Simulation time: 0 hr 3 min 27 sec) 
Heartbeat CPU 0 instructions: 20000001 cycles: 6585519 heartbeat IPC: 3.03429 cumulative IPC: 3.03697 (Simulation time: 0 hr 6 min 20 sec) 
Heartbeat CPU 0 instructions: 30000000 cycles: 9871808 heartbeat IPC: 3.04295 cumulative IPC: 3.03896 (Simulation time: 0 hr 8 min 53 sec) 
Heartbeat CPU 0 instructions: 40000001 cycles: 13161136 heartbeat IPC: 3.04013 cumulative IPC: 3.03925 (Simulation time: 0 hr 11 min 5 sec) 
Heartbeat CPU 0 instructions: 50000000 cycles: 16459707 heartbeat IPC: 3.03162 cumulative IPC: 3.03772 (Simulation time: 0 hr 13 min 9 sec) 

Warmup complete CPU 0 instructions: 50000004 cycles: 16459708 (Simulation time: 0 hr 13 min 9 sec) 

Heartbeat CPU 0 instructions: 60000000 cycles: 37642757 heartbeat IPC: 0.472076 cumulative IPC: 0.472075 (Simulation time: 0 hr 16 min 26 sec) 
Heartbeat CPU 0 instructions: 70000002 cycles: 58976550 heartbeat IPC: 0.46874 cumulative IPC: 0.470402 (Simulation time: 0 hr 19 min 45 sec) 
Heartbeat CPU 0 instructions: 80000002 cycles: 80301721 heartbeat IPC: 0.468929 cumulative IPC: 0.46991 (Simulation time: 0 hr 22 min 59 sec) 
Heartbeat CPU 0 instructions: 90000003 cycles: 101602145 heartbeat IPC: 0.469474 cumulative IPC: 0.469801 (Simulation time: 0 hr 27 min 40 sec) 
Heartbeat CPU 0 instructions: 100000002 cycles: 122958285 heartbeat IPC: 0.468249 cumulative IPC: 0.46949 (Simulation time: 0 hr 32 min 35 sec) 
Finished CPU 0 instructions: 50000002 cycles: 106498578 cumulative IPC: 0.46949 (Simulation time: 0 hr 32 min 35 sec) 

ChampSim completed all CPUs

Region of Interest Statistics

CPU 0 cumulative IPC: 0.46949 instructions: 50000002 cycles: 106498578

CPU 0 Average Load ROB stall cycles: 3.21805e+07
CPU 0 Fraction of times ROB stalled by Loads: 46.2773
CPU 0 Percentage of Load stall cycles in Total stall cycles: 2.53972e+08
Issued all: 53680585
Issued LT all: 48389209
rob_not_full_when_issued_lt_all: 16873746
Issued LT one: 42572760
rob_not_full_when_issued_lt_one: 12872459
 Total stall cycles: 88675379
 Total load stall cycles: 225210214533560
CPU 0 NUM of IPS identified critical: 0
CPU 0 Num of Load IPs stalling ROB: 4730
Threshold modification factor: 0
Max PIST entries: 64
Min PIST entries: 0
Avg PIST entries: 32
Trouble in retire width: 0.804169
MaC = Marked as critical.
lt_50_percent_before_Mac: 0
gt_90_percent_before_Mac: 0
gt_75_percent_before_Mac: 0
gt_50_percent_before_Mac: 0
stall_proportion_bin_same_before_after: 0
stall_proportion_bin_lower_before_after: 0
stall_proportion_bin_upper_before_after: 0
average_stall_proportion_before: -nan
average_stall_proportion_after: -nan
Critical IP stalls, total frequency: 0
Non-critical IP stalls, total frequency: 3238640
Total Freq all stalling IPs: 3238640
stat_90_percent_critical_ip_stalls_freq: 2915933
stat_90_percent_non_critical_ip_stalls_freq: 322707
Critical_IP_ROB_Stalls_Bucket_0: 0
Non-critical_IP_ROB_Stalls_Bucket_0: 485555
Critical_IP_ROB_Stalls_Bucket_1: 0
Non-critical_IP_ROB_Stalls_Bucket_1: 586797
Critical_IP_ROB_Stalls_Bucket_2: 0
Non-critical_IP_ROB_Stalls_Bucket_2: 438274
Critical_IP_ROB_Stalls_Bucket_3: 0
Non-critical_IP_ROB_Stalls_Bucket_3: 273162
Critical_IP_ROB_Stalls_Bucket_4: 0
Non-critical_IP_ROB_Stalls_Bucket_4: 172638
Critical_IP_ROB_Stalls_Bucket_5: 0
Non-critical_IP_ROB_Stalls_Bucket_5: 155123
Critical_IP_ROB_Stalls_Bucket_6: 0
Non-critical_IP_ROB_Stalls_Bucket_6: 1127091
0 => IPs accounting for >50 percent of stalls, 1 => 55, 2 => 60, 3 => 65 and so on till 90.
percent50: 50.0268 num IPs:  10
percent55: 55.1995 num IPs: 26
percent60: 60.0566 num IPs: 53
percent65: 65.01 num IPs: 94
percent70: 70.039 num IPs: 161
percent75: 75.0258 num IPs: 230
percent80: 80.0176 num IPs: 301
percent85: 85.0085 num IPs: 380
percent90: 90.0358 num IPs: 484
Critical_ROB_Stalls_Percent_0_Bucket_0: 35895
Non-critical_ROB_Stalls_Percent_0_Bucket_0: 449660
Critical_ROB_Stalls_Percent_0_Bucket_1: 97752
Non-critical_ROB_Stalls_Percent_0_Bucket_1: 489045
Critical_ROB_Stalls_Percent_0_Bucket_2: 140609
Non-critical_ROB_Stalls_Percent_0_Bucket_2: 297665
Critical_ROB_Stalls_Percent_0_Bucket_3: 131700
Non-critical_ROB_Stalls_Percent_0_Bucket_3: 141462
Critical_ROB_Stalls_Percent_0_Bucket_4: 110670
Non-critical_ROB_Stalls_Percent_0_Bucket_4: 61968
Critical_ROB_Stalls_Percent_0_Bucket_5: 103138
Non-critical_ROB_Stalls_Percent_0_Bucket_5: 51985
Critical_ROB_Stalls_Percent_0_Bucket_6: 1000425
Non-critical_ROB_Stalls_Percent_0_Bucket_6: 126666
Critical_ROB_Stalls_Percent_1_Bucket_0: 91340
Non-critical_ROB_Stalls_Percent_1_Bucket_0: 394215
Critical_ROB_Stalls_Percent_1_Bucket_1: 161222
Non-critical_ROB_Stalls_Percent_1_Bucket_1: 425575
Critical_ROB_Stalls_Percent_1_Bucket_2: 160339
Non-critical_ROB_Stalls_Percent_1_Bucket_2: 277935
Critical_ROB_Stalls_Percent_1_Bucket_3: 151160
Non-critical_ROB_Stalls_Percent_1_Bucket_3: 122002
Critical_ROB_Stalls_Percent_1_Bucket_4: 115584
Non-critical_ROB_Stalls_Percent_1_Bucket_4: 57054
Critical_ROB_Stalls_Percent_1_Bucket_5: 105485
Non-critical_ROB_Stalls_Percent_1_Bucket_5: 49638
Critical_ROB_Stalls_Percent_1_Bucket_6: 1002584
Non-critical_ROB_Stalls_Percent_1_Bucket_6: 124507
Critical_ROB_Stalls_Percent_2_Bucket_0: 151435
Non-critical_ROB_Stalls_Percent_2_Bucket_0: 334120
Critical_ROB_Stalls_Percent_2_Bucket_1: 190031
Non-critical_ROB_Stalls_Percent_2_Bucket_1: 396766
Critical_ROB_Stalls_Percent_2_Bucket_2: 185873
Non-critical_ROB_Stalls_Percent_2_Bucket_2: 252401
Critical_ROB_Stalls_Percent_2_Bucket_3: 159685
Non-critical_ROB_Stalls_Percent_2_Bucket_3: 113477
Critical_ROB_Stalls_Percent_2_Bucket_4: 119735
Non-critical_ROB_Stalls_Percent_2_Bucket_4: 52903
Critical_ROB_Stalls_Percent_2_Bucket_5: 111931
Non-critical_ROB_Stalls_Percent_2_Bucket_5: 43192
Critical_ROB_Stalls_Percent_2_Bucket_6: 1026327
Non-critical_ROB_Stalls_Percent_2_Bucket_6: 100764
Critical_ROB_Stalls_Percent_3_Bucket_0: 195105
Non-critical_ROB_Stalls_Percent_3_Bucket_0: 290450
Critical_ROB_Stalls_Percent_3_Bucket_1: 231139
Non-critical_ROB_Stalls_Percent_3_Bucket_1: 355658
Critical_ROB_Stalls_Percent_3_Bucket_2: 221852
Non-critical_ROB_Stalls_Percent_3_Bucket_2: 216422
Critical_ROB_Stalls_Percent_3_Bucket_3: 168715
Non-critical_ROB_Stalls_Percent_3_Bucket_3: 104447
Critical_ROB_Stalls_Percent_3_Bucket_4: 127071
Non-critical_ROB_Stalls_Percent_3_Bucket_4: 45567
Critical_ROB_Stalls_Percent_3_Bucket_5: 118120
Non-critical_ROB_Stalls_Percent_3_Bucket_5: 37003
Critical_ROB_Stalls_Percent_3_Bucket_6: 1043437
Non-critical_ROB_Stalls_Percent_3_Bucket_6: 83654
Critical_ROB_Stalls_Percent_4_Bucket_0: 224696
Non-critical_ROB_Stalls_Percent_4_Bucket_0: 260859
Critical_ROB_Stalls_Percent_4_Bucket_1: 282362
Non-critical_ROB_Stalls_Percent_4_Bucket_1: 304435
Critical_ROB_Stalls_Percent_4_Bucket_2: 250742
Non-critical_ROB_Stalls_Percent_4_Bucket_2: 187532
Critical_ROB_Stalls_Percent_4_Bucket_3: 184736
Non-critical_ROB_Stalls_Percent_4_Bucket_3: 88426
Critical_ROB_Stalls_Percent_4_Bucket_4: 142583
Non-critical_ROB_Stalls_Percent_4_Bucket_4: 30055
Critical_ROB_Stalls_Percent_4_Bucket_5: 128485
Non-critical_ROB_Stalls_Percent_4_Bucket_5: 26638
Critical_ROB_Stalls_Percent_4_Bucket_6: 1054704
Non-critical_ROB_Stalls_Percent_4_Bucket_6: 72387
Critical_ROB_Stalls_Percent_5_Bucket_0: 252929
Non-critical_ROB_Stalls_Percent_5_Bucket_0: 232626
Critical_ROB_Stalls_Percent_5_Bucket_1: 338041
Non-critical_ROB_Stalls_Percent_5_Bucket_1: 248756
Critical_ROB_Stalls_Percent_5_Bucket_2: 291142
Non-critical_ROB_Stalls_Percent_5_Bucket_2: 147132
Critical_ROB_Stalls_Percent_5_Bucket_3: 204519
Non-critical_ROB_Stalls_Percent_5_Bucket_3: 68643
Critical_ROB_Stalls_Percent_5_Bucket_4: 150106
Non-critical_ROB_Stalls_Percent_5_Bucket_4: 22532
Critical_ROB_Stalls_Percent_5_Bucket_5: 133517
Non-critical_ROB_Stalls_Percent_5_Bucket_5: 21606
Critical_ROB_Stalls_Percent_5_Bucket_6: 1059559
Non-critical_ROB_Stalls_Percent_5_Bucket_6: 67532
Critical_ROB_Stalls_Percent_6_Bucket_0: 292632
Non-critical_ROB_Stalls_Percent_6_Bucket_0: 192923
Critical_ROB_Stalls_Percent_6_Bucket_1: 402208
Non-critical_ROB_Stalls_Percent_6_Bucket_1: 184589
Critical_ROB_Stalls_Percent_6_Bucket_2: 317502
Non-critical_ROB_Stalls_Percent_6_Bucket_2: 120772
Critical_ROB_Stalls_Percent_6_Bucket_3: 220858
Non-critical_ROB_Stalls_Percent_6_Bucket_3: 52304
Critical_ROB_Stalls_Percent_6_Bucket_4: 153563
Non-critical_ROB_Stalls_Percent_6_Bucket_4: 19075
Critical_ROB_Stalls_Percent_6_Bucket_5: 135537
Non-critical_ROB_Stalls_Percent_6_Bucket_5: 19586
Critical_ROB_Stalls_Percent_6_Bucket_6: 1069180
Non-critical_ROB_Stalls_Percent_6_Bucket_6: 57911
Critical_ROB_Stalls_Percent_7_Bucket_0: 338987
Non-critical_ROB_Stalls_Percent_7_Bucket_0: 146568
Critical_ROB_Stalls_Percent_7_Bucket_1: 450690
Non-critical_ROB_Stalls_Percent_7_Bucket_1: 136107
Critical_ROB_Stalls_Percent_7_Bucket_2: 359163
Non-critical_ROB_Stalls_Percent_7_Bucket_2: 79111
Critical_ROB_Stalls_Percent_7_Bucket_3: 232336
Non-critical_ROB_Stalls_Percent_7_Bucket_3: 40826
Critical_ROB_Stalls_Percent_7_Bucket_4: 156283
Non-critical_ROB_Stalls_Percent_7_Bucket_4: 16355
Critical_ROB_Stalls_Percent_7_Bucket_5: 138731
Non-critical_ROB_Stalls_Percent_7_Bucket_5: 16392
Critical_ROB_Stalls_Percent_7_Bucket_6: 1076926
Non-critical_ROB_Stalls_Percent_7_Bucket_6: 50165
Critical_ROB_Stalls_Percent_8_Bucket_0: 386120
Non-critical_ROB_Stalls_Percent_8_Bucket_0: 99435
Critical_ROB_Stalls_Percent_8_Bucket_1: 494468
Non-critical_ROB_Stalls_Percent_8_Bucket_1: 92329
Critical_ROB_Stalls_Percent_8_Bucket_2: 387205
Non-critical_ROB_Stalls_Percent_8_Bucket_2: 51069
Critical_ROB_Stalls_Percent_8_Bucket_3: 245078
Non-critical_ROB_Stalls_Percent_8_Bucket_3: 28084
Critical_ROB_Stalls_Percent_8_Bucket_4: 161664
Non-critical_ROB_Stalls_Percent_8_Bucket_4: 10974
Critical_ROB_Stalls_Percent_8_Bucket_5: 144019
Non-critical_ROB_Stalls_Percent_8_Bucket_5: 11104
Critical_ROB_Stalls_Percent_8_Bucket_6: 1097379
Non-critical_ROB_Stalls_Percent_8_Bucket_6: 29712
Average ROB occupancy Load Stall Begin: 186.974
Average ROB occupancy Load Stall End: 195.698
Min ROB occupancy Load Stall Begin: 1
Max ROB occupancy Load Stall Begin: 352
Min ROB occupancy Load Stall End: 1
Max ROB occupancy Load Stall End: 352
Average ROB occupancy Critical Load Stall Begin: -nan
Average ROB occupancy Critical Load Stall End: -nan
Min ROB occupancy Critical Load Stall Begin: 400
Max ROB occupancy Critical Load Stall Begin: 0
Min ROB occupancy Critical Load Stall End: 400
Max ROB occupancy Critical Load Stall End: 0
 ROB Load Stall Begin Bucket Count 0: 687802
 ROB Load Stall End Bucket Count 0: 485555
 ROB Critical Load Stall Begin Bucket Count 0: 0
 ROB Critical Load Stall End Bucket Count 0: 0
 ROB Load Stall Begin Bucket Count 1: 521121
 ROB Load Stall End Bucket Count 1: 586797
 ROB Critical Load Stall Begin Bucket Count 1: 0
 ROB Critical Load Stall End Bucket Count 1: 0
 ROB Load Stall Begin Bucket Count 2: 392518
 ROB Load Stall End Bucket Count 2: 438274
 ROB Critical Load Stall Begin Bucket Count 2: 0
 ROB Critical Load Stall End Bucket Count 2: 0
 ROB Load Stall Begin Bucket Count 3: 227704
 ROB Load Stall End Bucket Count 3: 273162
 ROB Critical Load Stall Begin Bucket Count 3: 0
 ROB Critical Load Stall End Bucket Count 3: 0
 ROB Load Stall Begin Bucket Count 4: 159367
 ROB Load Stall End Bucket Count 4: 172638
 ROB Critical Load Stall Begin Bucket Count 4: 0
 ROB Critical Load Stall End Bucket Count 4: 0
 ROB Load Stall Begin Bucket Count 5: 155825
 ROB Load Stall End Bucket Count 5: 155123
 ROB Critical Load Stall Begin Bucket Count 5: 0
 ROB Critical Load Stall End Bucket Count 5: 0
 ROB Load Stall Begin Bucket Count 6: 1094303
 ROB Load Stall End Bucket Count 6: 1127091
 ROB Critical Load Stall Begin Bucket Count 6: 0
 ROB Critical Load Stall End Bucket Count 6: 0
PIST Tag Read Accesses: 2557556
PIST Read Accesses: 1278778
PIST Tag Write Accesses: 2557556
PIST Write Accesses: 1278778
Criticality detector called times: 1777983
Max global_stall_cycles_count: 3826861
Threshold Modified: 0 times, factor: 0
Sturdy critical IP cache stats: 
 Unused entries: 0
CIC Tag Read Accesses: 0
CIC Read Accesses: 0
CIC Tag Write Accesses: 0
CIC Write Accesses: 0
Wobbly critical IP cache stats: 
 Unused entries: 120
CIC Tag Read Accesses: 172276576
CIC Read Accesses: 0
CIC Tag Write Accesses: 8
CIC Write Accesses: 0
ITLB TOTAL     ACCESS:   10388794  HIT:    9919175  MISS:     469619  HIT %:    95.4796  MISS %:    4.52044   MPKI: 9.39238
ITLB LOAD TRANSLATION ACCESS:    8478489  HIT:    8466831  MISS:      11658  HIT %:    99.8625  MISS %:   0.137501   MPKI: 0.23316
ITLB TRANSLATION FROM L1D PREFETCHER ACCESS:    1910305  HIT:    1452344  MISS:     457961  HIT %:    76.0268  MISS %:    23.9732   MPKI: 9.15922
ITLB PREFETCH  REQUESTED:          0  ISSUED:          0  USEFUL:     411116  USELESS:      46845
ITLB USEFUL LOAD PREFETCHES:     411116 PREFETCH ISSUED TO LOWER LEVEL:          0  ACCURACY: inf
ITLB TIMELY PREFETCHES:     411116 LATE PREFETCHES: 281 DROPPED PREFETCHES: 0
ITLB PREFETCHES SAME FILL-ORIGIN LEVEL: 0 DIFFERENT FILL-ORIGIN LEVEL: 0
ITLB AVERAGE MISS LATENCY: 42057.6 cycles
ITLB RQ	ACCESS:   14886232	FORWARD:          0	MERGED:    4444271	TO_CACHE:   10441961

DTLB TOTAL     ACCESS:   10789377  HIT:   10369445  MISS:     419932  HIT %:    96.1079  MISS %:    3.89209   MPKI: 8.39864
DTLB LOAD TRANSLATION ACCESS:   10789377  HIT:   10369445  MISS:     419932  HIT %:    96.1079  MISS %:    3.89209   MPKI: 8.39864
DTLB PREFETCH  REQUESTED:          0  ISSUED:          0  USEFUL:          0  USELESS:          0
DTLB USEFUL LOAD PREFETCHES:          0 PREFETCH ISSUED TO LOWER LEVEL:          0  ACCURACY: -nan
DTLB TIMELY PREFETCHES:          0 LATE PREFETCHES: 0 DROPPED PREFETCHES: 0
DTLB PREFETCHES SAME FILL-ORIGIN LEVEL: 0 DIFFERENT FILL-ORIGIN LEVEL: 0
DTLB AVERAGE MISS LATENCY: 19.684 cycles
DTLB RQ	ACCESS:   16017862	FORWARD:          0	MERGED:    5146290	TO_CACHE:   10871572

STLB TOTAL     ACCESS:     889551  HIT:     856318  MISS:      33233  HIT %:    96.2641  MISS %:    3.73593   MPKI: 0.66466
STLB LOAD TRANSLATION ACCESS:     431309  HIT:     398861  MISS:      32448  HIT %:    92.4769  MISS %:    7.52314   MPKI: 0.64896
STLB TRANSLATION FROM L1D PREFETCHER ACCESS:     458242  HIT:     457457  MISS:        785  HIT %:    99.8287  MISS %:   0.171307   MPKI: 0.0157
STLB PREFETCH  REQUESTED:          0  ISSUED:          0  USEFUL:        494  USELESS:        279
STLB USEFUL LOAD PREFETCHES:        494 PREFETCH ISSUED TO LOWER LEVEL:          0  ACCURACY: inf
STLB TIMELY PREFETCHES:        494 LATE PREFETCHES: 0 DROPPED PREFETCHES: 0
STLB PREFETCHES SAME FILL-ORIGIN LEVEL: 0 DIFFERENT FILL-ORIGIN LEVEL: 0
STLB AVERAGE MISS LATENCY: 141.904 cycles
STLB RQ	ACCESS:     889551	FORWARD:          0	MERGED:          0	TO_CACHE:     889551

STLB Hit, L1D data hit: 0
STLB Hit, L2C data hit: 0
STLB Hit, LLC data hit: 0
STLB Hit, LLC data miss: 0
STLB STLB hints to L2: 0
L1D TOTAL     ACCESS:   13472582  HIT:   11679708  MISS:    1792874  HIT %:    86.6924  MISS %:    13.3076   MPKI: 35.8575
L1D LOAD      ACCESS:    7356703  HIT:    6525101  MISS:     831602  HIT %:     88.696  MISS %:     11.304   MPKI: 16.632
L1D RFO       ACCESS:    6115879  HIT:    5154607  MISS:     961272  HIT %:    84.2824  MISS %:    15.7176   MPKI: 19.2254
L1D PREFETCH  REQUESTED:          0  ISSUED:          0  USEFUL:          0  USELESS:          0
L1D USEFUL LOAD PREFETCHES:          0 PREFETCH ISSUED TO LOWER LEVEL:          0  ACCURACY: -nan
L1D TIMELY PREFETCHES:          0 LATE PREFETCHES: 0 DROPPED PREFETCHES: 0
L1D PREFETCHES SAME FILL-ORIGIN LEVEL: 0 DIFFERENT FILL-ORIGIN LEVEL: 0
L1D AVERAGE MISS LATENCY: 166.901 cycles
L1D RQ	ACCESS:   11030967	FORWARD:          0	MERGED:    3510861	TO_CACHE:    7400614
L1D WQ	ACCESS:    8713551	FORWARD:     119492	MERGED:      96303	TO_CACHE:    8617248

L1D UNIQUE REGIONS ACCESSED: 0
L1D REGIONS CONFLICTS: 0
L1D Cross Page Prefetch Requests: 0
L1D Same Page Prefetch Requests: 0
L1D ROI Sum of L1D PQ occupancy: 0
L1D PREFETCHES PUSHED FROM L2C: 0
L1I TOTAL     ACCESS:   14812913  HIT:   11683012  MISS:    3129901  HIT %:    78.8705  MISS %:    21.1295   MPKI: 62.598
L1I LOAD      ACCESS:    9897775  HIT:    9878549  MISS:      19226  HIT %:    99.8058  MISS %:   0.194246   MPKI: 0.38452
L1I PREFETCH  ACCESS:    4915138  HIT:    1804463  MISS:    3110675  HIT %:    36.7124  MISS %:    63.2876   MPKI: 62.2135
L1I PREFETCH  REQUESTED:    5168674  ISSUED:    5164322  USEFUL:    2609831  USELESS:     500899
L1I USEFUL LOAD PREFETCHES:    2609831 PREFETCH ISSUED TO LOWER LEVEL:    3118877  ACCURACY: 83.6785
L1I TIMELY PREFETCHES:    2609831 LATE PREFETCHES: 7506 DROPPED PREFETCHES: 0
L1I PREFETCHES SAME FILL-ORIGIN LEVEL: 3118877 DIFFERENT FILL-ORIGIN LEVEL: 0
L1I AVERAGE MISS LATENCY: 165245 cycles
L1I RQ	ACCESS:   14171502	FORWARD:          0	MERGED:    4269732	TO_CACHE:    9901770
L1I PQ	ACCESS:    5164322	FORWARD:          0	MERGED:     179860	TO_CACHE:    4984462

BTB TOTAL     ACCESS:    5333119  HIT:    5067879  MISS:     265240  HIT %:    95.0266  MISS %:    4.97345   MPKI: 5.3048
BTB BRANCH_DIRECT_JUMP	ACCESS:     458219  HIT:     456490  MISS:       1729
BTB BRANCH_INDIRECT	ACCESS:      49088  HIT:      48920  MISS:        168
BTB BRANCH_CONDITIONAL	ACCESS:    3001358  HIT:    2995715  MISS:       5643
BTB BRANCH_DIRECT_CALL	ACCESS:     745129  HIT:     741537  MISS:       3592
BTB BRANCH_INDIRECT_CALL	ACCESS:     167106  HIT:     138209  MISS:      28897
BTB BRANCH_RETURN	ACCESS:     912219  HIT:     687008  MISS:     225211
BTB BRANCH_OTHER ACCESS:          0  HIT:          0  MISS:          0

L2C TOTAL     ACCESS:    6838968  HIT:    5035543  MISS:    1803425  HIT %:    73.6302  MISS %:    26.3698   MPKI: 36.0685
L2C LOAD      ACCESS:     843312  HIT:     368564  MISS:     474748  HIT %:    43.7043  MISS %:    56.2957   MPKI: 9.49496
L2C DATA LOAD MPKI: 9.40572
L2C INSTRUCTION LOAD MPKI: 0.08924
L2C RFO       ACCESS:     961269  HIT:      33981  MISS:     927288  HIT %:    3.53501  MISS %:     96.465   MPKI: 18.5458
L2C PREFETCH  ACCESS:    3847818  HIT:    3521981  MISS:     325837  HIT %:    91.5319  MISS %:     8.4681   MPKI: 6.51674
L2C DATA PREFETCH MPKI: 3.44956
L2C INSTRUCTION PREFETCH MPKI: 3.06718
L2C WRITEBACK ACCESS:    1149717  HIT:    1094597  MISS:      55120  HIT %:    95.2058  MISS %:    4.79422   MPKI: 1.1024
L2C LOAD TRANSLATION ACCESS:      35688  HIT:      16135  MISS:      19553  HIT %:    45.2113  MISS %:    54.7887   MPKI: 0.39106
L2C TRANSLATION FROM L1D PREFETCHER ACCESS:       1164  HIT:        285  MISS:        879  HIT %:    24.4845  MISS %:    75.5155   MPKI: 0.01758
L2C PREFETCH  REQUESTED:    3340988  ISSUED:    3340831  USEFUL:     170438  USELESS:     155589
L2C USEFUL LOAD PREFETCHES:     170438 PREFETCH ISSUED TO LOWER LEVEL:    2027069  ACCURACY: 8.4081
L2C TIMELY PREFETCHES:     170438 LATE PREFETCHES: 1552 DROPPED PREFETCHES: 0
L2C PREFETCHES SAME FILL-ORIGIN LEVEL: 174098 DIFFERENT FILL-ORIGIN LEVEL: 1699680
L2C AVERAGE MISS LATENCY: 160.564 cycles
L2C RQ	ACCESS:    1841446	FORWARD:          0	MERGED:          0	TO_CACHE:    1841433
L2C WQ	ACCESS:    1149717	FORWARD:         13	MERGED:          0	TO_CACHE:    1149717
L2C PQ	ACCESS:    6459012	FORWARD:          0	MERGED:     902056	TO_CACHE:    5556956

L2C Instructions Evicting Data 142719
L2C Translations Evicting Data 18617
L2C Data Evicting Data 1414713
L2C Instructions Evicting Instructions 13534
L2C Translations Evicting Instructions 1568
L2C Data Evicting Instructions 137216
L2C Instructions Evicting Translations 1568
L2C Translations Evicting Translations 247
L2C Data Evicting Translations 18123
L2C Dense regions hint from L2: 0
PSCL5 TOTAL     ACCESS:      33233  HIT:      33233  MISS:          0  HIT %:        100  MISS %:          0   MPKI: 0
PSCL5 LOAD TRANSLATION ACCESS:      32448  HIT:      32448  MISS:          0  HIT %:        100  MISS %:          0   MPKI: 0
PSCL5 TRANSLATION FROM L1D PREFETCHER ACCESS:        785  HIT:        785  MISS:          0  HIT %:        100  MISS %:          0   MPKI: 0
PSCL5 PREFETCH  REQUESTED:          0  ISSUED:          0  USEFUL:          0  USELESS:          0
PSCL5 USEFUL LOAD PREFETCHES:          0 PREFETCH ISSUED TO LOWER LEVEL:          0  ACCURACY: -nan
PSCL5 TIMELY PREFETCHES:          0 LATE PREFETCHES: 0 DROPPED PREFETCHES: 0
PSCL5 PREFETCHES SAME FILL-ORIGIN LEVEL: 0 DIFFERENT FILL-ORIGIN LEVEL: 0

PSCL4 TOTAL     ACCESS:      32422  HIT:      32303  MISS:        119  HIT %:     99.633  MISS %:   0.367035   MPKI: 0.00238
PSCL4 LOAD TRANSLATION ACCESS:      31684  HIT:      31565  MISS:        119  HIT %:    99.6244  MISS %:   0.375584   MPKI: 0.00238
PSCL4 TRANSLATION FROM L1D PREFETCHER ACCESS:        738  HIT:        738  MISS:          0  HIT %:        100  MISS %:          0   MPKI: 0
PSCL4 PREFETCH  REQUESTED:          0  ISSUED:          0  USEFUL:          0  USELESS:          0
PSCL4 USEFUL LOAD PREFETCHES:          0 PREFETCH ISSUED TO LOWER LEVEL:          0  ACCURACY: -nan
PSCL4 TIMELY PREFETCHES:          0 LATE PREFETCHES: 0 DROPPED PREFETCHES: 0
PSCL4 PREFETCHES SAME FILL-ORIGIN LEVEL: 0 DIFFERENT FILL-ORIGIN LEVEL: 0

PSCL3 TOTAL     ACCESS:      32818  HIT:      32699  MISS:        119  HIT %:    99.6374  MISS %:   0.362606   MPKI: 0.00238
PSCL3 LOAD TRANSLATION ACCESS:      32080  HIT:      31961  MISS:        119  HIT %:    99.6291  MISS %:   0.370948   MPKI: 0.00238
PSCL3 TRANSLATION FROM L1D PREFETCHER ACCESS:        738  HIT:        738  MISS:          0  HIT %:        100  MISS %:          0   MPKI: 0
PSCL3 PREFETCH  REQUESTED:          0  ISSUED:          0  USEFUL:          0  USELESS:          0
PSCL3 USEFUL LOAD PREFETCHES:          0 PREFETCH ISSUED TO LOWER LEVEL:          0  ACCURACY: -nan
PSCL3 TIMELY PREFETCHES:          0 LATE PREFETCHES: 0 DROPPED PREFETCHES: 0
PSCL3 PREFETCHES SAME FILL-ORIGIN LEVEL: 0 DIFFERENT FILL-ORIGIN LEVEL: 0

PSCL2 TOTAL     ACCESS:      33233  HIT:      29829  MISS:       3404  HIT %:    89.7572  MISS %:    10.2428   MPKI: 0.06808
PSCL2 LOAD TRANSLATION ACCESS:      32749  HIT:      29345  MISS:       3404  HIT %:    89.6058  MISS %:    10.3942   MPKI: 0.06808
PSCL2 TRANSLATION FROM L1D PREFETCHER ACCESS:        484  HIT:        484  MISS:          0  HIT %:        100  MISS %:          0   MPKI: 0
PSCL2 PREFETCH  REQUESTED:          0  ISSUED:          0  USEFUL:          0  USELESS:          0
PSCL2 USEFUL LOAD PREFETCHES:          0 PREFETCH ISSUED TO LOWER LEVEL:          0  ACCURACY: -nan
PSCL2 TIMELY PREFETCHES:          0 LATE PREFETCHES: 0 DROPPED PREFETCHES: 0
PSCL2 PREFETCHES SAME FILL-ORIGIN LEVEL: 0 DIFFERENT FILL-ORIGIN LEVEL: 0

LLC TOTAL     ACCESS:    4247165  HIT:    2288257  MISS:    1958908  HIT %:    53.8773  MISS %:    46.1227   MPKI: 39.1782
LLC LOAD      ACCESS:     473193  HIT:     352796  MISS:     120397  HIT %:    74.5565  MISS %:    25.4435   MPKI: 2.40794
LLC RFO       ACCESS:     927286  HIT:     146379  MISS:     780907  HIT %:    15.7857  MISS %:    84.2143   MPKI: 15.6181
LLC PREFETCH  ACCESS:    1748372  HIT:    1504104  MISS:     244268  HIT %:    86.0288  MISS %:    13.9712   MPKI: 4.88536
LLC WRITEBACK ACCESS:    1077882  HIT:     275237  MISS:     802645  HIT %:     25.535  MISS %:     74.465   MPKI: 16.0529
LLC LOAD TRANSLATION ACCESS:      19553  HIT:       9478  MISS:      10075  HIT %:    48.4734  MISS %:    51.5266   MPKI: 0.2015
LLC TRANSLATION FROM L1D PREFETCHER ACCESS:        879  HIT:        263  MISS:        616  HIT %:    29.9204  MISS %:    70.0796   MPKI: 0.01232
LLC PREFETCH  REQUESTED:          0  ISSUED:          0  USEFUL:      93611  USELESS:     145427
LLC USEFUL LOAD PREFETCHES:      93611 PREFETCH ISSUED TO LOWER LEVEL:     247048  ACCURACY: 37.8918
LLC TIMELY PREFETCHES:      93611 LATE PREFETCHES: 2780 DROPPED PREFETCHES: 0
LLC PREFETCHES SAME FILL-ORIGIN LEVEL: 228305 DIFFERENT FILL-ORIGIN LEVEL: 0
LLC AVERAGE MISS LATENCY: 141.6 cycles
LLC RQ	ACCESS:    1420916	FORWARD:          0	MERGED:          0	TO_CACHE:    1420911
LLC WQ	ACCESS:    1077882	FORWARD:          5	MERGED:          0	TO_CACHE:    1077882
LLC PQ	ACCESS:    2027069	FORWARD:          0	MERGED:        730	TO_CACHE:    2026339

LLC Dense regions hint to LLC: 0

RAW hits: 1373905
Loads Generated: 12404873
Loads sent to L1D: 11030967
Stores Generated: 8713494
Stores sent to L1D: 8713551
Major fault: 0 Minor fault: 22230
Allocated PAGES: 22230
I-Shadow cache 408 bytes
Touched + WorthPF tables 6144 bytes 
MMA filter 174 bytes 
FNL filter 272 bytes 
TOTAL PREFETCHER STORAGE SIZE: 25174 bytes
CPU 0 L1I next line prefetcher final stats
 All Calls: 7852239
 Critical Calls: 2105222
------------------
Depth Distribution
------------------
depth 0: 0
depth 1: 1829340
depth 2: 1146974
depth 3: 623847
depth 4: 348435
depth 5: 263601
depth 6: 187618
depth 7: 128304
depth 8: 80795
depth 9: 27820
depth 10: 1608
depth 11: 80
depth 12: 0
depth 13: 0
depth 14: 0
depth 15: 0
depth 16: 0
depth 17: 0
depth 18: 0
depth 19: 0
depth 20: 0
depth 21: 0
depth 22: 0
depth 23: 0
depth 24: 0
depth 25: 0
depth 26: 0
depth 27: 0
depth 28: 0
depth 29: 0
Total: 4638422
-----------------------------
-----------------------------
	Captured at Filter
-----------------------------
depth 0: 0
depth 1: 305434
depth 2: 233364
depth 3: 160539
depth 4: 62219
depth 5: 11403
depth 6: 2505
depth 7: 984
depth 8: 271
depth 9: 61
depth 10: 7
depth 11: 0
depth 12: 0
depth 13: 0
depth 14: 0
depth 15: 0
depth 16: 0
depth 17: 0
depth 18: 0
depth 19: 0
depth 20: 0
depth 21: 0
depth 22: 0
depth 23: 0
depth 24: 0
depth 25: 0
depth 26: 0
depth 27: 0
depth 28: 0
depth 29: 0
-----------------------------
-----------------------------
		Lost at Page
-----------------------------
depth 0: 0
depth 1: 40392
depth 2: 26904
depth 3: 19563
depth 4: 16714
depth 5: 18998
depth 6: 17453
depth 7: 15223
depth 8: 11594
depth 9: 4652
depth 10: 301
depth 11: 21
depth 12: 0
depth 13: 0
depth 14: 0
depth 15: 0
depth 16: 0
depth 17: 0
depth 18: 0
depth 19: 0
depth 20: 0
depth 21: 0
depth 22: 0
depth 23: 0
depth 24: 0
depth 25: 0
depth 26: 0
depth 27: 0
depth 28: 0
depth 29: 0
-----------------------------
-----------------------------
	Lost due to PQ Size
-----------------------------
157
-----------------------------
ST read accesses: 1186917
ST write accesses: 8643
PT read accesses: 26852651
PT write accesses: 1724612
FILTER read accesses: 6753959
FILTER write accesses: 2334507
GHR read accesses: 868103
GHR write accesses: 144368
GHR counter read accesses: 22439132
GHR counter write accesses: 1734478
ST tag read accesses: 445411373
ST tag write accesses: 18450100

DRAM Statistics
 CHANNEL 0
 RQ ROW_BUFFER_HIT:     420989  ROW_BUFFER_MISS:     735206
 DBUS_CONGESTED:        504
 WQ ROW_BUFFER_HIT:     206745  ROW_BUFFER_MISS:     648471  FULL:      15089

 AVG_CONGESTED_CYCLE: 3
 All warmup complete: 2
Channel 0 Bank busy for read cycles: 0
Channel 0 Bank busy for write cycles: 0
Channel 0
Rank 0
0banks busy for read cycles: 22734312
0banks busy for write cycles: 62323
1banks busy for read cycles: 20995363
1banks busy for write cycles: 9234506
2banks busy for read cycles: 10779816
2banks busy for write cycles: 4716393
3banks busy for read cycles: 5309138
3banks busy for write cycles: 2605999
4banks busy for read cycles: 3441365
4banks busy for write cycles: 1851527
5banks busy for read cycles: 1321181
5banks busy for write cycles: 1523144
6banks busy for read cycles: 1047615
6banks busy for write cycles: 1415754
7banks busy for read cycles: 1311294
7banks busy for write cycles: 2153325
8banks busy for read cycles: 4990543
8banks busy for write cycles: 11004981

CPU 0 Branch Prediction Accuracy: 99.712% MPKI: 0.47638 Average ROB Occupancy at Mispredict: 98.2003
Branch types
NOT_BRANCH: 41729379 83.4588%
BRANCH_DIRECT_JUMP: 458219 0.916438%
BRANCH_INDIRECT: 49088 0.098176%
BRANCH_CONDITIONAL: 5938510 11.877%
BRANCH_DIRECT_CALL: 745129 1.49026%
BRANCH_INDIRECT_CALL: 167106 0.334212%
BRANCH_RETURN: 912219 1.82444%
BRANCH_OTHER: 0 0%

DRAM PAGES: 1048576
Allocated PAGES: 22230
