
*** ChampSim Multicore Out-of-Order Simulator ***

Warmup Instructions: 50000000
Simulation Instructions: 50000000
Number of CPUs: 1
LLC sets: 2048
LLC ways: 16
Off-chip DRAM Size: 4096 MB Channels: 1 Width: 64-bit Data Rate: 6400 MT/s
CPU 0 runs ../IPC-traces//server_023.champsimtrace.xz
.xz
NUM_OF_IPS_IN_CRITICAL_IP_TRAINING: 64
NUM_OF_CRITICAL_IP_TRAINING_TABLE_WAYS: 2
NUM_OF_CRITICAL_IP_TRAINING_TABLE_SETS: 32
WOBBLY_CRITICAL_IP_CACHE_SETS: 32
WOBBLY_CRITICAL_IP_CACHE_WAYS: 4
BTB has LRU replacement policy
ITLB has LRU replacement policy
DTLB has LRU replacement policy
STLB has LRU replacement policy
CPU 0 L1I next line prefetcher
L1I has LRU replacement policy
L1D has LRU replacement policy
Bingo PHT WAYS: 16 and PHT_SIZE: 16384
Initialize SRRIP state for L2C
Initialize DRRIP state for LLC
Heartbeat CPU 0 instructions: 10000001 cycles: 2873248 heartbeat IPC: 3.48038 cumulative IPC: 3.48038 (Simulation time: 0 hr 3 min 19 sec) 
Heartbeat CPU 0 instructions: 20000000 cycles: 5743213 heartbeat IPC: 3.48436 cumulative IPC: 3.48237 (Simulation time: 0 hr 5 min 59 sec) 
Heartbeat CPU 0 instructions: 30000002 cycles: 8609653 heartbeat IPC: 3.48865 cumulative IPC: 3.48446 (Simulation time: 0 hr 8 min 26 sec) 
Heartbeat CPU 0 instructions: 40000002 cycles: 11478666 heartbeat IPC: 3.48552 cumulative IPC: 3.48473 (Simulation time: 0 hr 10 min 27 sec) 
Heartbeat CPU 0 instructions: 50000001 cycles: 14348325 heartbeat IPC: 3.48473 cumulative IPC: 3.48473 (Simulation time: 0 hr 12 min 23 sec) 

Warmup complete CPU 0 instructions: 50000001 cycles: 14348325 (Simulation time: 0 hr 12 min 23 sec) 

Heartbeat CPU 0 instructions: 60000000 cycles: 30197469 heartbeat IPC: 0.630949 cumulative IPC: 0.630949 (Simulation time: 0 hr 14 min 37 sec) 
Heartbeat CPU 0 instructions: 70000000 cycles: 46268698 heartbeat IPC: 0.62223 cumulative IPC: 0.626559 (Simulation time: 0 hr 16 min 54 sec) 
Heartbeat CPU 0 instructions: 80000000 cycles: 62107383 heartbeat IPC: 0.631366 cumulative IPC: 0.628153 (Simulation time: 0 hr 19 min 11 sec) 
Heartbeat CPU 0 instructions: 90000000 cycles: 77460676 heartbeat IPC: 0.651326 cumulative IPC: 0.63379 (Simulation time: 0 hr 21 min 19 sec) 
Heartbeat CPU 0 instructions: 100000001 cycles: 93290486 heartbeat IPC: 0.63172 cumulative IPC: 0.633375 (Simulation time: 0 hr 23 min 28 sec) 
Finished CPU 0 instructions: 50000000 cycles: 78942161 cumulative IPC: 0.633375 (Simulation time: 0 hr 23 min 28 sec) 

ChampSim completed all CPUs

Region of Interest Statistics

CPU 0 cumulative IPC: 0.633375 instructions: 50000000 cycles: 78942161

CPU 0 Average Load ROB stall cycles: 1.99259e+07
CPU 0 Fraction of times ROB stalled by Loads: 36.9498
CPU 0 Percentage of Load stall cycles in Total stall cycles: 2.80629e+08
Issued all: 27944110
Issued LT all: 22029757
rob_not_full_when_issued_lt_all: 21602708
Issued LT one: 17197096
rob_not_full_when_issued_lt_one: 16823844
 Total stall cycles: 65595658
 Total load stall cycles: 184080717264570
CPU 0 NUM of IPS identified critical: 0
CPU 0 Num of Load IPs stalling ROB: 13681
Threshold modification factor: 0
Max PIST entries: 64
Min PIST entries: 0
Avg PIST entries: 31.98
Trouble in retire width: 0.894209
MaC = Marked as critical.
lt_50_percent_before_Mac: 0
gt_90_percent_before_Mac: 0
gt_75_percent_before_Mac: 0
gt_50_percent_before_Mac: 0
stall_proportion_bin_same_before_after: 0
stall_proportion_bin_lower_before_after: 0
stall_proportion_bin_upper_before_after: 0
average_stall_proportion_before: -nan
average_stall_proportion_after: -nan
Critical IP stalls, total frequency: 0
Non-critical IP stalls, total frequency: 3413513
Total Freq all stalling IPs: 3413513
stat_90_percent_critical_ip_stalls_freq: 3072286
stat_90_percent_non_critical_ip_stalls_freq: 341227
Critical_IP_ROB_Stalls_Bucket_0: 0
Non-critical_IP_ROB_Stalls_Bucket_0: 2363820
Critical_IP_ROB_Stalls_Bucket_1: 0
Non-critical_IP_ROB_Stalls_Bucket_1: 697758
Critical_IP_ROB_Stalls_Bucket_2: 0
Non-critical_IP_ROB_Stalls_Bucket_2: 242256
Critical_IP_ROB_Stalls_Bucket_3: 0
Non-critical_IP_ROB_Stalls_Bucket_3: 58371
Critical_IP_ROB_Stalls_Bucket_4: 0
Non-critical_IP_ROB_Stalls_Bucket_4: 19732
Critical_IP_ROB_Stalls_Bucket_5: 0
Non-critical_IP_ROB_Stalls_Bucket_5: 9685
Critical_IP_ROB_Stalls_Bucket_6: 0
Non-critical_IP_ROB_Stalls_Bucket_6: 21891
0 => IPs accounting for >50 percent of stalls, 1 => 55, 2 => 60, 3 => 65 and so on till 90.
percent50: 50.0189 num IPs:  387
percent55: 55.0196 num IPs: 561
percent60: 60.0119 num IPs: 798
percent65: 65.0124 num IPs: 1065
percent70: 70.0049 num IPs: 1368
percent75: 75.0036 num IPs: 1735
percent80: 80.0003 num IPs: 2236
percent85: 85.0072 num IPs: 2771
percent90: 90.0045 num IPs: 3342
Critical_ROB_Stalls_Percent_0_Bucket_0: 966816
Non-critical_ROB_Stalls_Percent_0_Bucket_0: 1397004
Critical_ROB_Stalls_Percent_0_Bucket_1: 460655
Non-critical_ROB_Stalls_Percent_0_Bucket_1: 237103
Critical_ROB_Stalls_Percent_0_Bucket_2: 186089
Non-critical_ROB_Stalls_Percent_0_Bucket_2: 56167
Critical_ROB_Stalls_Percent_0_Bucket_3: 48311
Non-critical_ROB_Stalls_Percent_0_Bucket_3: 10060
Critical_ROB_Stalls_Percent_0_Bucket_4: 17003
Non-critical_ROB_Stalls_Percent_0_Bucket_4: 2729
Critical_ROB_Stalls_Percent_0_Bucket_5: 8507
Non-critical_ROB_Stalls_Percent_0_Bucket_5: 1178
Critical_ROB_Stalls_Percent_0_Bucket_6: 20021
Non-critical_ROB_Stalls_Percent_0_Bucket_6: 1870
Critical_ROB_Stalls_Percent_1_Bucket_0: 1079949
Non-critical_ROB_Stalls_Percent_1_Bucket_0: 1283871
Critical_ROB_Stalls_Percent_1_Bucket_1: 501795
Non-critical_ROB_Stalls_Percent_1_Bucket_1: 195963
Critical_ROB_Stalls_Percent_1_Bucket_2: 199429
Non-critical_ROB_Stalls_Percent_1_Bucket_2: 42827
Critical_ROB_Stalls_Percent_1_Bucket_3: 50872
Non-critical_ROB_Stalls_Percent_1_Bucket_3: 7499
Critical_ROB_Stalls_Percent_1_Bucket_4: 17474
Non-critical_ROB_Stalls_Percent_1_Bucket_4: 2258
Critical_ROB_Stalls_Percent_1_Bucket_5: 8521
Non-critical_ROB_Stalls_Percent_1_Bucket_5: 1164
Critical_ROB_Stalls_Percent_1_Bucket_6: 20061
Non-critical_ROB_Stalls_Percent_1_Bucket_6: 1830
Critical_ROB_Stalls_Percent_2_Bucket_0: 1209668
Non-critical_ROB_Stalls_Percent_2_Bucket_0: 1154152
Critical_ROB_Stalls_Percent_2_Bucket_1: 530226
Non-critical_ROB_Stalls_Percent_2_Bucket_1: 167532
Critical_ROB_Stalls_Percent_2_Bucket_2: 209612
Non-critical_ROB_Stalls_Percent_2_Bucket_2: 32644
Critical_ROB_Stalls_Percent_2_Bucket_3: 51845
Non-critical_ROB_Stalls_Percent_2_Bucket_3: 6526
Critical_ROB_Stalls_Percent_2_Bucket_4: 17884
Non-critical_ROB_Stalls_Percent_2_Bucket_4: 1848
Critical_ROB_Stalls_Percent_2_Bucket_5: 8621
Non-critical_ROB_Stalls_Percent_2_Bucket_5: 1064
Critical_ROB_Stalls_Percent_2_Bucket_6: 20656
Non-critical_ROB_Stalls_Percent_2_Bucket_6: 1235
Critical_ROB_Stalls_Percent_3_Bucket_0: 1342467
Non-critical_ROB_Stalls_Percent_3_Bucket_0: 1021353
Critical_ROB_Stalls_Percent_3_Bucket_1: 562443
Non-critical_ROB_Stalls_Percent_3_Bucket_1: 135315
Critical_ROB_Stalls_Percent_3_Bucket_2: 214621
Non-critical_ROB_Stalls_Percent_3_Bucket_2: 27635
Critical_ROB_Stalls_Percent_3_Bucket_3: 52443
Non-critical_ROB_Stalls_Percent_3_Bucket_3: 5928
Critical_ROB_Stalls_Percent_3_Bucket_4: 17923
Non-critical_ROB_Stalls_Percent_3_Bucket_4: 1809
Critical_ROB_Stalls_Percent_3_Bucket_5: 8633
Non-critical_ROB_Stalls_Percent_3_Bucket_5: 1052
Critical_ROB_Stalls_Percent_3_Bucket_6: 20674
Non-critical_ROB_Stalls_Percent_3_Bucket_6: 1217
Critical_ROB_Stalls_Percent_4_Bucket_0: 1475046
Non-critical_ROB_Stalls_Percent_4_Bucket_0: 888774
Critical_ROB_Stalls_Percent_4_Bucket_1: 592640
Non-critical_ROB_Stalls_Percent_4_Bucket_1: 105118
Critical_ROB_Stalls_Percent_4_Bucket_2: 221067
Non-critical_ROB_Stalls_Percent_4_Bucket_2: 21189
Critical_ROB_Stalls_Percent_4_Bucket_3: 53376
Non-critical_ROB_Stalls_Percent_4_Bucket_3: 4995
Critical_ROB_Stalls_Percent_4_Bucket_4: 18086
Non-critical_ROB_Stalls_Percent_4_Bucket_4: 1646
Critical_ROB_Stalls_Percent_4_Bucket_5: 8700
Non-critical_ROB_Stalls_Percent_4_Bucket_5: 985
Critical_ROB_Stalls_Percent_4_Bucket_6: 20708
Non-critical_ROB_Stalls_Percent_4_Bucket_6: 1183
Critical_ROB_Stalls_Percent_5_Bucket_0: 1616958
Non-critical_ROB_Stalls_Percent_5_Bucket_0: 746862
Critical_ROB_Stalls_Percent_5_Bucket_1: 615344
Non-critical_ROB_Stalls_Percent_5_Bucket_1: 82414
Critical_ROB_Stalls_Percent_5_Bucket_2: 225597
Non-critical_ROB_Stalls_Percent_5_Bucket_2: 16659
Critical_ROB_Stalls_Percent_5_Bucket_3: 54586
Non-critical_ROB_Stalls_Percent_5_Bucket_3: 3785
Critical_ROB_Stalls_Percent_5_Bucket_4: 18259
Non-critical_ROB_Stalls_Percent_5_Bucket_4: 1473
Critical_ROB_Stalls_Percent_5_Bucket_5: 8737
Non-critical_ROB_Stalls_Percent_5_Bucket_5: 948
Critical_ROB_Stalls_Percent_5_Bucket_6: 20775
Non-critical_ROB_Stalls_Percent_5_Bucket_6: 1116
Critical_ROB_Stalls_Percent_6_Bucket_0: 1759770
Non-critical_ROB_Stalls_Percent_6_Bucket_0: 604050
Critical_ROB_Stalls_Percent_6_Bucket_1: 636039
Non-critical_ROB_Stalls_Percent_6_Bucket_1: 61719
Critical_ROB_Stalls_Percent_6_Bucket_2: 231763
Non-critical_ROB_Stalls_Percent_6_Bucket_2: 10493
Critical_ROB_Stalls_Percent_6_Bucket_3: 55178
Non-critical_ROB_Stalls_Percent_6_Bucket_3: 3193
Critical_ROB_Stalls_Percent_6_Bucket_4: 18375
Non-critical_ROB_Stalls_Percent_6_Bucket_4: 1357
Critical_ROB_Stalls_Percent_6_Bucket_5: 8817
Non-critical_ROB_Stalls_Percent_6_Bucket_5: 868
Critical_ROB_Stalls_Percent_6_Bucket_6: 20866
Non-critical_ROB_Stalls_Percent_6_Bucket_6: 1025
Critical_ROB_Stalls_Percent_7_Bucket_0: 1909759
Non-critical_ROB_Stalls_Percent_7_Bucket_0: 454061
Critical_ROB_Stalls_Percent_7_Bucket_1: 653812
Non-critical_ROB_Stalls_Percent_7_Bucket_1: 43946
Critical_ROB_Stalls_Percent_7_Bucket_2: 234105
Non-critical_ROB_Stalls_Percent_7_Bucket_2: 8151
Critical_ROB_Stalls_Percent_7_Bucket_3: 55784
Non-critical_ROB_Stalls_Percent_7_Bucket_3: 2587
Critical_ROB_Stalls_Percent_7_Bucket_4: 18480
Non-critical_ROB_Stalls_Percent_7_Bucket_4: 1252
Critical_ROB_Stalls_Percent_7_Bucket_5: 8833
Non-critical_ROB_Stalls_Percent_7_Bucket_5: 852
Critical_ROB_Stalls_Percent_7_Bucket_6: 20927
Non-critical_ROB_Stalls_Percent_7_Bucket_6: 964
Critical_ROB_Stalls_Percent_8_Bucket_0: 2065918
Non-critical_ROB_Stalls_Percent_8_Bucket_0: 297902
Critical_ROB_Stalls_Percent_8_Bucket_1: 664782
Non-critical_ROB_Stalls_Percent_8_Bucket_1: 32976
Critical_ROB_Stalls_Percent_8_Bucket_2: 235206
Non-critical_ROB_Stalls_Percent_8_Bucket_2: 7050
Critical_ROB_Stalls_Percent_8_Bucket_3: 56533
Non-critical_ROB_Stalls_Percent_8_Bucket_3: 1838
Critical_ROB_Stalls_Percent_8_Bucket_4: 19108
Non-critical_ROB_Stalls_Percent_8_Bucket_4: 624
Critical_ROB_Stalls_Percent_8_Bucket_5: 9263
Non-critical_ROB_Stalls_Percent_8_Bucket_5: 422
Critical_ROB_Stalls_Percent_8_Bucket_6: 21476
Non-critical_ROB_Stalls_Percent_8_Bucket_6: 415
Average ROB occupancy Load Stall Begin: 38.3489
Average ROB occupancy Load Stall End: 46.5581
Min ROB occupancy Load Stall Begin: 1
Max ROB occupancy Load Stall Begin: 352
Min ROB occupancy Load Stall End: 1
Max ROB occupancy Load Stall End: 352
Average ROB occupancy Critical Load Stall Begin: -nan
Average ROB occupancy Critical Load Stall End: -nan
Min ROB occupancy Critical Load Stall Begin: 400
Max ROB occupancy Critical Load Stall Begin: 0
Min ROB occupancy Critical Load Stall End: 400
Max ROB occupancy Critical Load Stall End: 0
 ROB Load Stall Begin Bucket Count 0: 2594437
 ROB Load Stall End Bucket Count 0: 2363820
 ROB Critical Load Stall Begin Bucket Count 0: 0
 ROB Critical Load Stall End Bucket Count 0: 0
 ROB Load Stall Begin Bucket Count 1: 552380
 ROB Load Stall End Bucket Count 1: 697758
 ROB Critical Load Stall Begin Bucket Count 1: 0
 ROB Critical Load Stall End Bucket Count 1: 0
 ROB Load Stall Begin Bucket Count 2: 179694
 ROB Load Stall End Bucket Count 2: 242256
 ROB Critical Load Stall Begin Bucket Count 2: 0
 ROB Critical Load Stall End Bucket Count 2: 0
 ROB Load Stall Begin Bucket Count 3: 41276
 ROB Load Stall End Bucket Count 3: 58371
 ROB Critical Load Stall Begin Bucket Count 3: 0
 ROB Critical Load Stall End Bucket Count 3: 0
 ROB Load Stall Begin Bucket Count 4: 16222
 ROB Load Stall End Bucket Count 4: 19732
 ROB Critical Load Stall Begin Bucket Count 4: 0
 ROB Critical Load Stall End Bucket Count 4: 0
 ROB Load Stall Begin Bucket Count 5: 8651
 ROB Load Stall End Bucket Count 5: 9685
 ROB Critical Load Stall Begin Bucket Count 5: 0
 ROB Critical Load Stall End Bucket Count 5: 0
 ROB Load Stall Begin Bucket Count 6: 20853
 ROB Load Stall End Bucket Count 6: 21891
 ROB Critical Load Stall Begin Bucket Count 6: 0
 ROB Critical Load Stall End Bucket Count 6: 0
PIST Tag Read Accesses: 1739626
PIST Read Accesses: 869813
PIST Tag Write Accesses: 1739626
PIST Write Accesses: 869813
Criticality detector called times: 3255559
Max global_stall_cycles_count: 1708713
Threshold Modified: 0 times, factor: 0
Sturdy critical IP cache stats: 
 Unused entries: 0
CIC Tag Read Accesses: 0
CIC Read Accesses: 0
CIC Tag Write Accesses: 0
CIC Write Accesses: 0
Wobbly critical IP cache stats: 
 Unused entries: 114
CIC Tag Read Accesses: 154378868
CIC Read Accesses: 0
CIC Tag Write Accesses: 174
CIC Write Accesses: 0
ITLB TOTAL     ACCESS:    9974503  HIT:    9370691  MISS:     603812  HIT %:    93.9464  MISS %:    6.05355   MPKI: 12.0762
ITLB LOAD TRANSLATION ACCESS:    8218181  HIT:    8129608  MISS:      88573  HIT %:    98.9222  MISS %:    1.07777   MPKI: 1.77146
ITLB TRANSLATION FROM L1D PREFETCHER ACCESS:    1756322  HIT:    1241083  MISS:     515239  HIT %:    70.6638  MISS %:    29.3362   MPKI: 10.3048
ITLB PREFETCH  REQUESTED:          0  ISSUED:          0  USEFUL:     399179  USELESS:     116081
ITLB USEFUL LOAD PREFETCHES:     399179 PREFETCH ISSUED TO LOWER LEVEL:          0  ACCURACY: inf
ITLB TIMELY PREFETCHES:     399179 LATE PREFETCHES: 309 DROPPED PREFETCHES: 3048
ITLB PREFETCHES SAME FILL-ORIGIN LEVEL: 0 DIFFERENT FILL-ORIGIN LEVEL: 0
ITLB AVERAGE MISS LATENCY: 29000.8 cycles
ITLB RQ	ACCESS:   14440159	FORWARD:          0	MERGED:    4423540	TO_CACHE:   10016619

DTLB TOTAL     ACCESS:   11094200  HIT:   10643145  MISS:     451055  HIT %:    95.9343  MISS %:    4.06568   MPKI: 9.0211
DTLB LOAD TRANSLATION ACCESS:   11094200  HIT:   10643145  MISS:     451055  HIT %:    95.9343  MISS %:    4.06568   MPKI: 9.0211
DTLB PREFETCH  REQUESTED:          0  ISSUED:          0  USEFUL:          0  USELESS:          0
DTLB USEFUL LOAD PREFETCHES:          0 PREFETCH ISSUED TO LOWER LEVEL:          0  ACCURACY: -nan
DTLB TIMELY PREFETCHES:          0 LATE PREFETCHES: 0 DROPPED PREFETCHES: 0
DTLB PREFETCHES SAME FILL-ORIGIN LEVEL: 0 DIFFERENT FILL-ORIGIN LEVEL: 0
DTLB AVERAGE MISS LATENCY: 9.55901 cycles
DTLB RQ	ACCESS:   14449430	FORWARD:          0	MERGED:    3328766	TO_CACHE:   11120664

STLB TOTAL     ACCESS:    1054867  HIT:    1051799  MISS:       3068  HIT %:    99.7092  MISS %:   0.290842   MPKI: 0.06136
STLB LOAD TRANSLATION ACCESS:     539320  HIT:     536495  MISS:       2825  HIT %:    99.4762  MISS %:   0.523808   MPKI: 0.0565
STLB TRANSLATION FROM L1D PREFETCHER ACCESS:     515547  HIT:     515304  MISS:        243  HIT %:    99.9529  MISS %:  0.0471344   MPKI: 0.00486
STLB PREFETCH  REQUESTED:          0  ISSUED:          0  USEFUL:        198  USELESS:         44
STLB USEFUL LOAD PREFETCHES:        198 PREFETCH ISSUED TO LOWER LEVEL:          0  ACCURACY: inf
STLB TIMELY PREFETCHES:        198 LATE PREFETCHES: 0 DROPPED PREFETCHES: 3049
STLB PREFETCHES SAME FILL-ORIGIN LEVEL: 0 DIFFERENT FILL-ORIGIN LEVEL: 0
STLB AVERAGE MISS LATENCY: 93.263 cycles
STLB RQ	ACCESS:    1057916	FORWARD:          0	MERGED:          0	TO_CACHE:    1057916

STLB Hit, L1D data hit: 0
STLB Hit, L2C data hit: 0
STLB Hit, LLC data hit: 0
STLB Hit, LLC data miss: 0
STLB STLB hints to L2: 0
L1D TOTAL     ACCESS:   13979392  HIT:   13020418  MISS:     958974  HIT %:    93.1401  MISS %:    6.85991   MPKI: 19.1795
L1D LOAD      ACCESS:    7902696  HIT:    7211848  MISS:     690848  HIT %:    91.2581  MISS %:    8.74193   MPKI: 13.817
L1D RFO       ACCESS:    6076696  HIT:    5808570  MISS:     268126  HIT %:    95.5876  MISS %:    4.41236   MPKI: 5.36252
L1D PREFETCH  REQUESTED:          0  ISSUED:          0  USEFUL:          0  USELESS:          0
L1D USEFUL LOAD PREFETCHES:          0 PREFETCH ISSUED TO LOWER LEVEL:          0  ACCURACY: -nan
L1D TIMELY PREFETCHES:          0 LATE PREFETCHES: 0 DROPPED PREFETCHES: 0
L1D PREFETCHES SAME FILL-ORIGIN LEVEL: 0 DIFFERENT FILL-ORIGIN LEVEL: 0
L1D AVERAGE MISS LATENCY: 26.307 cycles
L1D RQ	ACCESS:   11308542	FORWARD:          0	MERGED:    3243894	TO_CACHE:    7939023
L1D WQ	ACCESS:    6576972	FORWARD:     125625	MERGED:      66565	TO_CACHE:    6510407

L1D UNIQUE REGIONS ACCESSED: 0
L1D REGIONS CONFLICTS: 0
L1D Cross Page Prefetch Requests: 0
L1D Same Page Prefetch Requests: 0
L1D ROI Sum of L1D PQ occupancy: 0
L1D PREFETCHES PUSHED FROM L2C: 0
L1I TOTAL     ACCESS:   14295063  HIT:   10691709  MISS:    3603354  HIT %:     74.793  MISS %:     25.207   MPKI: 72.0671
L1I LOAD      ACCESS:    9509998  HIT:    9238432  MISS:     271566  HIT %:    97.1444  MISS %:    2.85558   MPKI: 5.43132
L1I PREFETCH  ACCESS:    4785065  HIT:    1453277  MISS:    3331788  HIT %:    30.3711  MISS %:    69.6289   MPKI: 66.6358
L1I PREFETCH  REQUESTED:    5038913  ISSUED:    5024496  USEFUL:    2246123  USELESS:    1085735
L1I USEFUL LOAD PREFETCHES:    2246123 PREFETCH ISSUED TO LOWER LEVEL:    3361036  ACCURACY: 66.8283
L1I TIMELY PREFETCHES:    2246123 LATE PREFETCHES: 29248 DROPPED PREFETCHES: 7441
L1I PREFETCHES SAME FILL-ORIGIN LEVEL: 3361036 DIFFERENT FILL-ORIGIN LEVEL: 0
L1I AVERAGE MISS LATENCY: 426393 cycles
L1I RQ	ACCESS:   13477169	FORWARD:          0	MERGED:    3944179	TO_CACHE:    9532990
L1I PQ	ACCESS:    5024496	FORWARD:          0	MERGED:     117327	TO_CACHE:    4907169

BTB TOTAL     ACCESS:    6310560  HIT:    4653140  MISS:    1657420  HIT %:    73.7358  MISS %:    26.2642   MPKI: 33.1484
BTB BRANCH_DIRECT_JUMP	ACCESS:     548369  HIT:     407711  MISS:     140658
BTB BRANCH_INDIRECT	ACCESS:     189803  HIT:     158499  MISS:      31304
BTB BRANCH_CONDITIONAL	ACCESS:    3531693  HIT:    3094100  MISS:     437593
BTB BRANCH_DIRECT_CALL	ACCESS:     862206  HIT:     537302  MISS:     324904
BTB BRANCH_INDIRECT_CALL	ACCESS:     158147  HIT:      91210  MISS:      66937
BTB BRANCH_RETURN	ACCESS:    1020342  HIT:     364318  MISS:     656024
BTB BRANCH_OTHER ACCESS:          0  HIT:          0  MISS:          0

L2C TOTAL     ACCESS:    5027214  HIT:    4559389  MISS:     467825  HIT %:    90.6941  MISS %:    9.30585   MPKI: 9.3565
L2C LOAD      ACCESS:     933129  HIT:     774628  MISS:     158501  HIT %:     83.014  MISS %:     16.986   MPKI: 3.17002
L2C DATA LOAD MPKI: 2.49836
L2C INSTRUCTION LOAD MPKI: 0.67166
L2C RFO       ACCESS:     268123  HIT:     207870  MISS:      60253  HIT %:    77.5279  MISS %:    22.4721   MPKI: 1.20506
L2C PREFETCH  ACCESS:    3365871  HIT:    3137570  MISS:     228301  HIT %:    93.2172  MISS %:    6.78282   MPKI: 4.56602
L2C DATA PREFETCH MPKI: 0.08948
L2C INSTRUCTION PREFETCH MPKI: 4.47654
L2C WRITEBACK ACCESS:     451653  HIT:     433257  MISS:      18396  HIT %:     95.927  MISS %:    4.07304   MPKI: 0.36792
L2C LOAD TRANSLATION ACCESS:       3053  HIT:        921  MISS:       2132  HIT %:     30.167  MISS %:     69.833   MPKI: 0.04264
L2C TRANSLATION FROM L1D PREFETCHER ACCESS:       5385  HIT:       5143  MISS:        242  HIT %:     95.506  MISS %:    4.49396   MPKI: 0.00484
L2C PREFETCH  REQUESTED:       5292  ISSUED:       5292  USEFUL:      12726  USELESS:     216104
L2C USEFUL LOAD PREFETCHES:      12726 PREFETCH ISSUED TO LOWER LEVEL:     228581  ACCURACY: 5.56739
L2C TIMELY PREFETCHES:      12726 LATE PREFETCHES: 280 DROPPED PREFETCHES: 0
L2C PREFETCHES SAME FILL-ORIGIN LEVEL: 4754 DIFFERENT FILL-ORIGIN LEVEL: 0
L2C AVERAGE MISS LATENCY: 41.5389 cycles
L2C RQ	ACCESS:    1209730	FORWARD:          0	MERGED:          0	TO_CACHE:    1209690
L2C WQ	ACCESS:     451653	FORWARD:         40	MERGED:          0	TO_CACHE:     451653
L2C PQ	ACCESS:    3366328	FORWARD:          0	MERGED:          0	TO_CACHE:    3366328

L2C Instructions Evicting Data 107416
L2C Translations Evicting Data 1399
L2C Data Evicting Data 91052
L2C Instructions Evicting Instructions 149036
L2C Translations Evicting Instructions 951
L2C Data Evicting Instructions 97274
L2C Instructions Evicting Translations 958
L2C Translations Evicting Translations 24
L2C Data Evicting Translations 1319
L2C Dense regions hint from L2: 0
PSCL5 TOTAL     ACCESS:       6117  HIT:       6117  MISS:          0  HIT %:        100  MISS %:          0   MPKI: 0
PSCL5 LOAD TRANSLATION ACCESS:       2825  HIT:       2825  MISS:          0  HIT %:        100  MISS %:          0   MPKI: 0
PSCL5 TRANSLATION FROM L1D PREFETCHER ACCESS:       3292  HIT:       3292  MISS:          0  HIT %:        100  MISS %:          0   MPKI: 0
PSCL5 PREFETCH  REQUESTED:          0  ISSUED:          0  USEFUL:          0  USELESS:          0
PSCL5 USEFUL LOAD PREFETCHES:          0 PREFETCH ISSUED TO LOWER LEVEL:          0  ACCURACY: -nan
PSCL5 TIMELY PREFETCHES:          0 LATE PREFETCHES: 0 DROPPED PREFETCHES: 0
PSCL5 PREFETCHES SAME FILL-ORIGIN LEVEL: 0 DIFFERENT FILL-ORIGIN LEVEL: 0

PSCL4 TOTAL     ACCESS:       5777  HIT:       5761  MISS:         16  HIT %:     99.723  MISS %:    0.27696   MPKI: 0.00032
PSCL4 LOAD TRANSLATION ACCESS:       2500  HIT:       2484  MISS:         16  HIT %:      99.36  MISS %:       0.64   MPKI: 0.00032
PSCL4 TRANSLATION FROM L1D PREFETCHER ACCESS:       3277  HIT:       3277  MISS:          0  HIT %:        100  MISS %:          0   MPKI: 0
PSCL4 PREFETCH  REQUESTED:          0  ISSUED:          0  USEFUL:          0  USELESS:          0
PSCL4 USEFUL LOAD PREFETCHES:          0 PREFETCH ISSUED TO LOWER LEVEL:          0  ACCURACY: -nan
PSCL4 TIMELY PREFETCHES:          0 LATE PREFETCHES: 0 DROPPED PREFETCHES: 0
PSCL4 PREFETCHES SAME FILL-ORIGIN LEVEL: 0 DIFFERENT FILL-ORIGIN LEVEL: 0

PSCL3 TOTAL     ACCESS:       6093  HIT:       6077  MISS:         16  HIT %:    99.7374  MISS %:   0.262596   MPKI: 0.00032
PSCL3 LOAD TRANSLATION ACCESS:       2816  HIT:       2800  MISS:         16  HIT %:    99.4318  MISS %:   0.568182   MPKI: 0.00032
PSCL3 TRANSLATION FROM L1D PREFETCHER ACCESS:       3277  HIT:       3277  MISS:          0  HIT %:        100  MISS %:          0   MPKI: 0
PSCL3 PREFETCH  REQUESTED:          0  ISSUED:          0  USEFUL:          0  USELESS:          0
PSCL3 USEFUL LOAD PREFETCHES:          0 PREFETCH ISSUED TO LOWER LEVEL:          0  ACCURACY: -nan
PSCL3 TIMELY PREFETCHES:          0 LATE PREFETCHES: 0 DROPPED PREFETCHES: 0
PSCL3 PREFETCHES SAME FILL-ORIGIN LEVEL: 0 DIFFERENT FILL-ORIGIN LEVEL: 0

PSCL2 TOTAL     ACCESS:       4059  HIT:       3799  MISS:        260  HIT %:    93.5945  MISS %:    6.40552   MPKI: 0.0052
PSCL2 LOAD TRANSLATION ACCESS:       2858  HIT:       2598  MISS:        260  HIT %:    90.9027  MISS %:    9.09727   MPKI: 0.0052
PSCL2 TRANSLATION FROM L1D PREFETCHER ACCESS:       1201  HIT:       1201  MISS:          0  HIT %:        100  MISS %:          0   MPKI: 0
PSCL2 PREFETCH  REQUESTED:          0  ISSUED:          0  USEFUL:          0  USELESS:          0
PSCL2 USEFUL LOAD PREFETCHES:          0 PREFETCH ISSUED TO LOWER LEVEL:          0  ACCURACY: -nan
PSCL2 TIMELY PREFETCHES:          0 LATE PREFETCHES: 0 DROPPED PREFETCHES: 0
PSCL2 PREFETCHES SAME FILL-ORIGIN LEVEL: 0 DIFFERENT FILL-ORIGIN LEVEL: 0

LLC TOTAL     ACCESS:     533453  HIT:     497770  MISS:      35683  HIT %:    93.3109  MISS %:    6.68906   MPKI: 0.71366
LLC LOAD      ACCESS:     158221  HIT:     144417  MISS:      13804  HIT %:    91.2755  MISS %:    8.72451   MPKI: 0.27608
LLC RFO       ACCESS:      60253  HIT:      41112  MISS:      19141  HIT %:    68.2323  MISS %:    31.7677   MPKI: 0.38282
LLC PREFETCH  ACCESS:     228581  HIT:     226617  MISS:       1964  HIT %:    99.1408  MISS %:   0.859214   MPKI: 0.03928
LLC WRITEBACK ACCESS:      84024  HIT:      83604  MISS:        420  HIT %:    99.5001  MISS %:   0.499857   MPKI: 0.0084
LLC LOAD TRANSLATION ACCESS:       2132  HIT:       1810  MISS:        322  HIT %:    84.8968  MISS %:    15.1032   MPKI: 0.00644
LLC TRANSLATION FROM L1D PREFETCHER ACCESS:        242  HIT:        210  MISS:         32  HIT %:    86.7769  MISS %:    13.2231   MPKI: 0.00064
LLC PREFETCH  REQUESTED:          0  ISSUED:          0  USEFUL:         95  USELESS:       1101
LLC USEFUL LOAD PREFETCHES:         95 PREFETCH ISSUED TO LOWER LEVEL:       1964  ACCURACY: 4.83707
LLC TIMELY PREFETCHES:         95 LATE PREFETCHES: 0 DROPPED PREFETCHES: 0
LLC PREFETCHES SAME FILL-ORIGIN LEVEL: 0 DIFFERENT FILL-ORIGIN LEVEL: 0
LLC AVERAGE MISS LATENCY: 165.936 cycles
LLC RQ	ACCESS:     220848	FORWARD:          0	MERGED:          0	TO_CACHE:     220848
LLC WQ	ACCESS:      84024	FORWARD:          0	MERGED:          0	TO_CACHE:      84024
LLC PQ	ACCESS:     228581	FORWARD:          0	MERGED:          0	TO_CACHE:     228581

LLC Dense regions hint to LLC: 0

RAW hits: 921757
Loads Generated: 12230300
Loads sent to L1D: 11308542
Stores Generated: 6576955
Stores sent to L1D: 6576972
Major fault: 0 Minor fault: 2897
Allocated PAGES: 2897
I-Shadow cache 408 bytes
Touched + WorthPF tables 6144 bytes 
MMA filter 174 bytes 
FNL filter 272 bytes 
TOTAL PREFETCHER STORAGE SIZE: 25174 bytes
CPU 0 L1I next line prefetcher final stats
[Bingo] PHT Access: 330
[Bingo] PHT Hit PC+Addr: 30
[Bingo] PHT Hit PC+Offs: 190
[Bingo] PHT Miss: 110
[Bingo] Prefetch PC+Addr: 0
[Bingo] Prefetch PC+Offs: 0
[Bingo] Useful PC+Addr: 0
[Bingo] Useful PC+Offs: 0
[Bingo] Useless PC+Addr: 0
[Bingo] Useless PC+Offs: 0
[Bingo] L1 Prefetch per Region: 0
[Bingo] L2 Prefetch per Region: 25.0955
[Bingo] L3 Prefetch per Region: 0
[Bingo] No Prefetch per Region: 6.90455
[Bingo] Number of Voters Mean: 11.3842
[Bingo] Number of Voters SD: 5.98813
PHT read accesses: 2231
PHT write accesses: 213
AT read accesses: 6013
AT write accesses: 6015
FT read accesses: 1250
FT write accesses: 330
PS read accesses: 1030
PS write accesses: 220
PHT tag read accesses: 10796
PHT tag write accesses: 243
AT tag read accesses: 7594628
AT tag write accesses: 6228
FT tag read accesses: 7507212
FT tag write accesses: 1118
PS tag read accesses: 109275
PS tag write accesses: 1249

DRAM Statistics
 CHANNEL 0
 RQ ROW_BUFFER_HIT:      11964  ROW_BUFFER_MISS:      23296
 DBUS_CONGESTED:          1
 WQ ROW_BUFFER_HIT:       2555  ROW_BUFFER_MISS:      18276  FULL:          0

 AVG_CONGESTED_CYCLE: 2
 All warmup complete: 2
Channel 0 Bank busy for read cycles: 0
Channel 0 Bank busy for write cycles: 0
Channel 0
Rank 0
0banks busy for read cycles: 75126573
0banks busy for write cycles: 4223
1banks busy for read cycles: 1690313
1banks busy for write cycles: 591012
2banks busy for read cycles: 224966
2banks busy for write cycles: 209544
3banks busy for read cycles: 78378
3banks busy for write cycles: 145854
4banks busy for read cycles: 43311
4banks busy for write cycles: 119721
5banks busy for read cycles: 31523
5banks busy for write cycles: 113559
6banks busy for read cycles: 34786
6banks busy for write cycles: 106366
7banks busy for read cycles: 41735
7banks busy for write cycles: 109588
8banks busy for read cycles: 114010
8banks busy for write cycles: 156700

CPU 0 Branch Prediction Accuracy: 99.6798% MPKI: 0.58608 Average ROB Occupancy at Mispredict: 61.9903
Branch types
NOT_BRANCH: 40848109 81.6962%
BRANCH_DIRECT_JUMP: 548369 1.09674%
BRANCH_INDIRECT: 189803 0.379606%
BRANCH_CONDITIONAL: 6372728 12.7455%
BRANCH_DIRECT_CALL: 862206 1.72441%
BRANCH_INDIRECT_CALL: 158147 0.316294%
BRANCH_RETURN: 1020342 2.04068%
BRANCH_OTHER: 0 0%

DRAM PAGES: 1048576
Allocated PAGES: 2897
