
*** ChampSim Multicore Out-of-Order Simulator ***

Warmup Instructions: 50000000
Simulation Instructions: 50000000
Number of CPUs: 1
LLC sets: 2048
LLC ways: 16
Off-chip DRAM Size: 4096 MB Channels: 1 Width: 64-bit Data Rate: 6400 MT/s
CPU 0 runs ../IPC-traces//server_003.champsimtrace.xz
.xz
NUM_OF_IPS_IN_CRITICAL_IP_TRAINING: 64
NUM_OF_CRITICAL_IP_TRAINING_TABLE_WAYS: 2
NUM_OF_CRITICAL_IP_TRAINING_TABLE_SETS: 32
WOBBLY_CRITICAL_IP_CACHE_SETS: 32
WOBBLY_CRITICAL_IP_CACHE_WAYS: 4
BTB has LRU replacement policy
ITLB has LRU replacement policy
DTLB has LRU replacement policy
STLB has LRU replacement policy
CPU 0 L1I next line prefetcher
L1I has LRU replacement policy
L1D has LRU replacement policy
Bingo PHT WAYS: 16 and PHT_SIZE: 16384
Initialize SRRIP state for L2C
Initialize DRRIP state for LLC
Heartbeat CPU 0 instructions: 10000002 cycles: 2772122 heartbeat IPC: 3.60735 cumulative IPC: 3.60735 (Simulation time: 0 hr 3 min 9 sec) 
Heartbeat CPU 0 instructions: 20000003 cycles: 5577053 heartbeat IPC: 3.56515 cumulative IPC: 3.58612 (Simulation time: 0 hr 5 min 36 sec) 
Heartbeat CPU 0 instructions: 30000002 cycles: 8337288 heartbeat IPC: 3.62288 cumulative IPC: 3.59829 (Simulation time: 0 hr 7 min 58 sec) 
Heartbeat CPU 0 instructions: 40000001 cycles: 11178758 heartbeat IPC: 3.5193 cumulative IPC: 3.57822 (Simulation time: 0 hr 10 min 1 sec) 
Heartbeat CPU 0 instructions: 50000002 cycles: 14142528 heartbeat IPC: 3.37408 cumulative IPC: 3.53544 (Simulation time: 0 hr 11 min 57 sec) 

Warmup complete CPU 0 instructions: 50000002 cycles: 14142528 (Simulation time: 0 hr 11 min 57 sec) 

Heartbeat CPU 0 instructions: 60000000 cycles: 32476623 heartbeat IPC: 0.545432 cumulative IPC: 0.545432 (Simulation time: 0 hr 14 min 26 sec) 
Heartbeat CPU 0 instructions: 70000003 cycles: 49438346 heartbeat IPC: 0.589563 cumulative IPC: 0.566639 (Simulation time: 0 hr 16 min 40 sec) 
Heartbeat CPU 0 instructions: 80000000 cycles: 66577038 heartbeat IPC: 0.583475 cumulative IPC: 0.572142 (Simulation time: 0 hr 19 min 1 sec) 
Heartbeat CPU 0 instructions: 90000003 cycles: 83317286 heartbeat IPC: 0.597363 cumulative IPC: 0.578246 (Simulation time: 0 hr 21 min 20 sec) 
Heartbeat CPU 0 instructions: 100000001 cycles: 101030398 heartbeat IPC: 0.564553 cumulative IPC: 0.575454 (Simulation time: 0 hr 23 min 40 sec) 
Finished CPU 0 instructions: 50000003 cycles: 86887871 cumulative IPC: 0.575454 (Simulation time: 0 hr 23 min 40 sec) 

ChampSim completed all CPUs

Region of Interest Statistics

CPU 0 cumulative IPC: 0.575454 instructions: 50000003 cycles: 86887871

CPU 0 Average Load ROB stall cycles: 2.3373e+07
CPU 0 Fraction of times ROB stalled by Loads: 42.3683
CPU 0 Percentage of Load stall cycles in Total stall cycles: 2.55163e+08
Issued all: 28189207
Issued LT all: 22325846
rob_not_full_when_issued_lt_all: 21224900
Issued LT one: 17390732
rob_not_full_when_issued_lt_one: 16412670
 Total stall cycles: 71265916
 Total load stall cycles: 181843954286770
CPU 0 NUM of IPS identified critical: 0
CPU 0 Num of Load IPs stalling ROB: 48122
Threshold modification factor: 0
Max PIST entries: 64
Min PIST entries: 0
Avg PIST entries: 32
Trouble in retire width: 0.902091
MaC = Marked as critical.
lt_50_percent_before_Mac: 0
gt_90_percent_before_Mac: 0
gt_75_percent_before_Mac: 0
gt_50_percent_before_Mac: 0
stall_proportion_bin_same_before_after: 0
stall_proportion_bin_lower_before_after: 0
stall_proportion_bin_upper_before_after: 0
average_stall_proportion_before: -nan
average_stall_proportion_after: -nan
Critical IP stalls, total frequency: 0
Non-critical IP stalls, total frequency: 3296292
Total Freq all stalling IPs: 3296292
stat_90_percent_critical_ip_stalls_freq: 2966627
stat_90_percent_non_critical_ip_stalls_freq: 329665
Critical_IP_ROB_Stalls_Bucket_0: 0
Non-critical_IP_ROB_Stalls_Bucket_0: 1908917
Critical_IP_ROB_Stalls_Bucket_1: 0
Non-critical_IP_ROB_Stalls_Bucket_1: 874716
Critical_IP_ROB_Stalls_Bucket_2: 0
Non-critical_IP_ROB_Stalls_Bucket_2: 314790
Critical_IP_ROB_Stalls_Bucket_3: 0
Non-critical_IP_ROB_Stalls_Bucket_3: 94038
Critical_IP_ROB_Stalls_Bucket_4: 0
Non-critical_IP_ROB_Stalls_Bucket_4: 39095
Critical_IP_ROB_Stalls_Bucket_5: 0
Non-critical_IP_ROB_Stalls_Bucket_5: 20773
Critical_IP_ROB_Stalls_Bucket_6: 0
Non-critical_IP_ROB_Stalls_Bucket_6: 43963
0 => IPs accounting for >50 percent of stalls, 1 => 55, 2 => 60, 3 => 65 and so on till 90.
percent50: 50.0165 num IPs:  611
percent55: 55.0024 num IPs: 830
percent60: 60.0063 num IPs: 1111
percent65: 65.0072 num IPs: 1500
percent70: 70.0027 num IPs: 2035
percent75: 75.004 num IPs: 2817
percent80: 80.0009 num IPs: 4032
percent85: 85.0005 num IPs: 6069
percent90: 90.0006 num IPs: 9552
Critical_ROB_Stalls_Percent_0_Bucket_0: 830244
Non-critical_ROB_Stalls_Percent_0_Bucket_0: 1078673
Critical_ROB_Stalls_Percent_0_Bucket_1: 516850
Non-critical_ROB_Stalls_Percent_0_Bucket_1: 357866
Critical_ROB_Stalls_Percent_0_Bucket_2: 191060
Non-critical_ROB_Stalls_Percent_0_Bucket_2: 123730
Critical_ROB_Stalls_Percent_0_Bucket_3: 51111
Non-critical_ROB_Stalls_Percent_0_Bucket_3: 42927
Critical_ROB_Stalls_Percent_0_Bucket_4: 20806
Non-critical_ROB_Stalls_Percent_0_Bucket_4: 18289
Critical_ROB_Stalls_Percent_0_Bucket_5: 10723
Non-critical_ROB_Stalls_Percent_0_Bucket_5: 10050
Critical_ROB_Stalls_Percent_0_Bucket_6: 27895
Non-critical_ROB_Stalls_Percent_0_Bucket_6: 16068
Critical_ROB_Stalls_Percent_1_Bucket_0: 919299
Non-critical_ROB_Stalls_Percent_1_Bucket_0: 989618
Critical_ROB_Stalls_Percent_1_Bucket_1: 563454
Non-critical_ROB_Stalls_Percent_1_Bucket_1: 311262
Critical_ROB_Stalls_Percent_1_Bucket_2: 209351
Non-critical_ROB_Stalls_Percent_1_Bucket_2: 105439
Critical_ROB_Stalls_Percent_1_Bucket_3: 55816
Non-critical_ROB_Stalls_Percent_1_Bucket_3: 38222
Critical_ROB_Stalls_Percent_1_Bucket_4: 22778
Non-critical_ROB_Stalls_Percent_1_Bucket_4: 16317
Critical_ROB_Stalls_Percent_1_Bucket_5: 11912
Non-critical_ROB_Stalls_Percent_1_Bucket_5: 8861
Critical_ROB_Stalls_Percent_1_Bucket_6: 30430
Non-critical_ROB_Stalls_Percent_1_Bucket_6: 13533
Critical_ROB_Stalls_Percent_2_Bucket_0: 1015806
Non-critical_ROB_Stalls_Percent_2_Bucket_0: 893111
Critical_ROB_Stalls_Percent_2_Bucket_1: 608796
Non-critical_ROB_Stalls_Percent_2_Bucket_1: 265920
Critical_ROB_Stalls_Percent_2_Bucket_2: 222204
Non-critical_ROB_Stalls_Percent_2_Bucket_2: 92586
Critical_ROB_Stalls_Percent_2_Bucket_3: 60222
Non-critical_ROB_Stalls_Percent_2_Bucket_3: 33816
Critical_ROB_Stalls_Percent_2_Bucket_4: 24869
Non-critical_ROB_Stalls_Percent_2_Bucket_4: 14226
Critical_ROB_Stalls_Percent_2_Bucket_5: 12986
Non-critical_ROB_Stalls_Percent_2_Bucket_5: 7787
Critical_ROB_Stalls_Percent_2_Bucket_6: 33099
Non-critical_ROB_Stalls_Percent_2_Bucket_6: 10864
Critical_ROB_Stalls_Percent_3_Bucket_0: 1113475
Non-critical_ROB_Stalls_Percent_3_Bucket_0: 795442
Critical_ROB_Stalls_Percent_3_Bucket_1: 651927
Non-critical_ROB_Stalls_Percent_3_Bucket_1: 222789
Critical_ROB_Stalls_Percent_3_Bucket_2: 236704
Non-critical_ROB_Stalls_Percent_3_Bucket_2: 78086
Critical_ROB_Stalls_Percent_3_Bucket_3: 65278
Non-critical_ROB_Stalls_Percent_3_Bucket_3: 28760
Critical_ROB_Stalls_Percent_3_Bucket_4: 27026
Non-critical_ROB_Stalls_Percent_3_Bucket_4: 12069
Critical_ROB_Stalls_Percent_3_Bucket_5: 14001
Non-critical_ROB_Stalls_Percent_3_Bucket_5: 6772
Critical_ROB_Stalls_Percent_3_Bucket_6: 34419
Non-critical_ROB_Stalls_Percent_3_Bucket_6: 9544
Critical_ROB_Stalls_Percent_4_Bucket_0: 1208015
Non-critical_ROB_Stalls_Percent_4_Bucket_0: 700902
Critical_ROB_Stalls_Percent_4_Bucket_1: 695886
Non-critical_ROB_Stalls_Percent_4_Bucket_1: 178830
Critical_ROB_Stalls_Percent_4_Bucket_2: 250233
Non-critical_ROB_Stalls_Percent_4_Bucket_2: 64557
Critical_ROB_Stalls_Percent_4_Bucket_3: 70544
Non-critical_ROB_Stalls_Percent_4_Bucket_3: 23494
Critical_ROB_Stalls_Percent_4_Bucket_4: 29592
Non-critical_ROB_Stalls_Percent_4_Bucket_4: 9503
Critical_ROB_Stalls_Percent_4_Bucket_5: 15933
Non-critical_ROB_Stalls_Percent_4_Bucket_5: 4840
Critical_ROB_Stalls_Percent_4_Bucket_6: 37288
Non-critical_ROB_Stalls_Percent_4_Bucket_6: 6675
Critical_ROB_Stalls_Percent_5_Bucket_0: 1312326
Non-critical_ROB_Stalls_Percent_5_Bucket_0: 596591
Critical_ROB_Stalls_Percent_5_Bucket_1: 735757
Non-critical_ROB_Stalls_Percent_5_Bucket_1: 138959
Critical_ROB_Stalls_Percent_5_Bucket_2: 262564
Non-critical_ROB_Stalls_Percent_5_Bucket_2: 52226
Critical_ROB_Stalls_Percent_5_Bucket_3: 74818
Non-critical_ROB_Stalls_Percent_5_Bucket_3: 19220
Critical_ROB_Stalls_Percent_5_Bucket_4: 31349
Non-critical_ROB_Stalls_Percent_5_Bucket_4: 7746
Critical_ROB_Stalls_Percent_5_Bucket_5: 16939
Non-critical_ROB_Stalls_Percent_5_Bucket_5: 3834
Critical_ROB_Stalls_Percent_5_Bucket_6: 38590
Non-critical_ROB_Stalls_Percent_5_Bucket_6: 5373
Critical_ROB_Stalls_Percent_6_Bucket_0: 1419122
Non-critical_ROB_Stalls_Percent_6_Bucket_0: 489795
Critical_ROB_Stalls_Percent_6_Bucket_1: 771056
Non-critical_ROB_Stalls_Percent_6_Bucket_1: 103660
Critical_ROB_Stalls_Percent_6_Bucket_2: 275988
Non-critical_ROB_Stalls_Percent_6_Bucket_2: 38802
Critical_ROB_Stalls_Percent_6_Bucket_3: 79859
Non-critical_ROB_Stalls_Percent_6_Bucket_3: 14179
Critical_ROB_Stalls_Percent_6_Bucket_4: 33415
Non-critical_ROB_Stalls_Percent_6_Bucket_4: 5680
Critical_ROB_Stalls_Percent_6_Bucket_5: 18024
Non-critical_ROB_Stalls_Percent_6_Bucket_5: 2749
Critical_ROB_Stalls_Percent_6_Bucket_6: 39616
Non-critical_ROB_Stalls_Percent_6_Bucket_6: 4347
Critical_ROB_Stalls_Percent_7_Bucket_0: 1531382
Non-critical_ROB_Stalls_Percent_7_Bucket_0: 377535
Critical_ROB_Stalls_Percent_7_Bucket_1: 803744
Non-critical_ROB_Stalls_Percent_7_Bucket_1: 70972
Critical_ROB_Stalls_Percent_7_Bucket_2: 286443
Non-critical_ROB_Stalls_Percent_7_Bucket_2: 28347
Critical_ROB_Stalls_Percent_7_Bucket_3: 84247
Non-critical_ROB_Stalls_Percent_7_Bucket_3: 9791
Critical_ROB_Stalls_Percent_7_Bucket_4: 35508
Non-critical_ROB_Stalls_Percent_7_Bucket_4: 3587
Critical_ROB_Stalls_Percent_7_Bucket_5: 19113
Non-critical_ROB_Stalls_Percent_7_Bucket_5: 1660
Critical_ROB_Stalls_Percent_7_Bucket_6: 41474
Non-critical_ROB_Stalls_Percent_7_Bucket_6: 2489
Critical_ROB_Stalls_Percent_8_Bucket_0: 1647672
Non-critical_ROB_Stalls_Percent_8_Bucket_0: 261245
Critical_ROB_Stalls_Percent_8_Bucket_1: 833356
Non-critical_ROB_Stalls_Percent_8_Bucket_1: 41360
Critical_ROB_Stalls_Percent_8_Bucket_2: 297822
Non-critical_ROB_Stalls_Percent_8_Bucket_2: 16968
Critical_ROB_Stalls_Percent_8_Bucket_3: 88189
Non-critical_ROB_Stalls_Percent_8_Bucket_3: 5849
Critical_ROB_Stalls_Percent_8_Bucket_4: 37123
Non-critical_ROB_Stalls_Percent_8_Bucket_4: 1972
Critical_ROB_Stalls_Percent_8_Bucket_5: 19825
Non-critical_ROB_Stalls_Percent_8_Bucket_5: 948
Critical_ROB_Stalls_Percent_8_Bucket_6: 42640
Non-critical_ROB_Stalls_Percent_8_Bucket_6: 1323
Average ROB occupancy Load Stall Begin: 49.0336
Average ROB occupancy Load Stall End: 58.7255
Min ROB occupancy Load Stall Begin: 1
Max ROB occupancy Load Stall Begin: 352
Min ROB occupancy Load Stall End: 1
Max ROB occupancy Load Stall End: 352
Average ROB occupancy Critical Load Stall Begin: -nan
Average ROB occupancy Critical Load Stall End: -nan
Min ROB occupancy Critical Load Stall Begin: 400
Max ROB occupancy Critical Load Stall Begin: 0
Min ROB occupancy Critical Load Stall End: 400
Max ROB occupancy Critical Load Stall End: 0
 ROB Load Stall Begin Bucket Count 0: 2225363
 ROB Load Stall End Bucket Count 0: 1908917
 ROB Critical Load Stall Begin Bucket Count 0: 0
 ROB Critical Load Stall End Bucket Count 0: 0
 ROB Load Stall Begin Bucket Count 1: 674278
 ROB Load Stall End Bucket Count 1: 874716
 ROB Critical Load Stall Begin Bucket Count 1: 0
 ROB Critical Load Stall End Bucket Count 1: 0
 ROB Load Stall Begin Bucket Count 2: 238827
 ROB Load Stall End Bucket Count 2: 314790
 ROB Critical Load Stall Begin Bucket Count 2: 0
 ROB Critical Load Stall End Bucket Count 2: 0
 ROB Load Stall Begin Bucket Count 3: 69139
 ROB Load Stall End Bucket Count 3: 94038
 ROB Critical Load Stall Begin Bucket Count 3: 0
 ROB Critical Load Stall End Bucket Count 3: 0
 ROB Load Stall Begin Bucket Count 4: 31272
 ROB Load Stall End Bucket Count 4: 39095
 ROB Critical Load Stall Begin Bucket Count 4: 0
 ROB Critical Load Stall End Bucket Count 4: 0
 ROB Load Stall Begin Bucket Count 5: 18105
 ROB Load Stall End Bucket Count 5: 20773
 ROB Critical Load Stall Begin Bucket Count 5: 0
 ROB Critical Load Stall End Bucket Count 5: 0
 ROB Load Stall Begin Bucket Count 6: 39308
 ROB Load Stall End Bucket Count 6: 43963
 ROB Critical Load Stall Begin Bucket Count 6: 0
 ROB Critical Load Stall End Bucket Count 6: 0
PIST Tag Read Accesses: 2283928
PIST Read Accesses: 1141964
PIST Tag Write Accesses: 2283928
PIST Write Accesses: 1141964
Criticality detector called times: 2983559
Max global_stall_cycles_count: 3447207
Threshold Modified: 0 times, factor: 0
Sturdy critical IP cache stats: 
 Unused entries: 0
CIC Tag Read Accesses: 0
CIC Read Accesses: 0
CIC Tag Write Accesses: 0
CIC Write Accesses: 0
Wobbly critical IP cache stats: 
 Unused entries: 18
CIC Tag Read Accesses: 150031692
CIC Read Accesses: 0
CIC Tag Write Accesses: 26038
CIC Write Accesses: 0
ITLB TOTAL     ACCESS:    9184639  HIT:    9024106  MISS:     160533  HIT %:    98.2522  MISS %:    1.74784   MPKI: 3.21066
ITLB LOAD TRANSLATION ACCESS:    8302939  HIT:    8234230  MISS:      68709  HIT %:    99.1725  MISS %:   0.827526   MPKI: 1.37418
ITLB TRANSLATION FROM L1D PREFETCHER ACCESS:     881700  HIT:     789876  MISS:      91824  HIT %:    89.5856  MISS %:    10.4144   MPKI: 1.83648
ITLB PREFETCH  REQUESTED:          0  ISSUED:          0  USEFUL:      74930  USELESS:      16896
ITLB USEFUL LOAD PREFETCHES:      74930 PREFETCH ISSUED TO LOWER LEVEL:          0  ACCURACY: inf
ITLB TIMELY PREFETCHES:      74930 LATE PREFETCHES: 570 DROPPED PREFETCHES: 2978
ITLB PREFETCHES SAME FILL-ORIGIN LEVEL: 0 DIFFERENT FILL-ORIGIN LEVEL: 0
ITLB AVERAGE MISS LATENCY: 229012 cycles
ITLB RQ	ACCESS:   12107416	FORWARD:          0	MERGED:    2895182	TO_CACHE:    9212234

DTLB TOTAL     ACCESS:   10585720  HIT:   10152985  MISS:     432735  HIT %:    95.9121  MISS %:    4.08791   MPKI: 8.6547
DTLB LOAD TRANSLATION ACCESS:   10585720  HIT:   10152985  MISS:     432735  HIT %:    95.9121  MISS %:    4.08791   MPKI: 8.6547
DTLB PREFETCH  REQUESTED:          0  ISSUED:          0  USEFUL:          0  USELESS:          0
DTLB USEFUL LOAD PREFETCHES:          0 PREFETCH ISSUED TO LOWER LEVEL:          0  ACCURACY: -nan
DTLB TIMELY PREFETCHES:          0 LATE PREFETCHES: 0 DROPPED PREFETCHES: 0
DTLB PREFETCHES SAME FILL-ORIGIN LEVEL: 0 DIFFERENT FILL-ORIGIN LEVEL: 0
DTLB AVERAGE MISS LATENCY: 16.412 cycles
DTLB RQ	ACCESS:   13124801	FORWARD:          0	MERGED:    2510165	TO_CACHE:   10614636

STLB TOTAL     ACCESS:     593262  HIT:     511067  MISS:      82195  HIT %:    86.1452  MISS %:    13.8548   MPKI: 1.6439
STLB LOAD TRANSLATION ACCESS:     500874  HIT:     431775  MISS:      69099  HIT %:    86.2043  MISS %:    13.7957   MPKI: 1.38198
STLB TRANSLATION FROM L1D PREFETCHER ACCESS:      92388  HIT:      79292  MISS:      13096  HIT %:     85.825  MISS %:     14.175   MPKI: 0.26192
STLB PREFETCH  REQUESTED:          0  ISSUED:          0  USEFUL:       6713  USELESS:       6352
STLB USEFUL LOAD PREFETCHES:       6713 PREFETCH ISSUED TO LOWER LEVEL:          0  ACCURACY: inf
STLB TIMELY PREFETCHES:       6713 LATE PREFETCHES: 4 DROPPED PREFETCHES: 2978
STLB PREFETCHES SAME FILL-ORIGIN LEVEL: 0 DIFFERENT FILL-ORIGIN LEVEL: 0
STLB AVERAGE MISS LATENCY: 55.5069 cycles
STLB RQ	ACCESS:     596247	FORWARD:          0	MERGED:          2	TO_CACHE:     596245

STLB Hit, L1D data hit: 0
STLB Hit, L2C data hit: 0
STLB Hit, LLC data hit: 0
STLB Hit, LLC data miss: 0
STLB STLB hints to L2: 0
L1D TOTAL     ACCESS:   12881830  HIT:   12153796  MISS:     728034  HIT %:    94.3484  MISS %:    5.65163   MPKI: 14.5607
L1D LOAD      ACCESS:    8333572  HIT:    7733027  MISS:     600545  HIT %:    92.7937  MISS %:    7.20633   MPKI: 12.0109
L1D RFO       ACCESS:    4548258  HIT:    4420769  MISS:     127489  HIT %:     97.197  MISS %:    2.80303   MPKI: 2.54978
L1D PREFETCH  REQUESTED:          0  ISSUED:          0  USEFUL:          0  USELESS:          0
L1D USEFUL LOAD PREFETCHES:          0 PREFETCH ISSUED TO LOWER LEVEL:          0  ACCURACY: -nan
L1D TIMELY PREFETCHES:          0 LATE PREFETCHES: 0 DROPPED PREFETCHES: 0
L1D PREFETCHES SAME FILL-ORIGIN LEVEL: 0 DIFFERENT FILL-ORIGIN LEVEL: 0
L1D AVERAGE MISS LATENCY: 59.9652 cycles
L1D RQ	ACCESS:   12663258	FORWARD:          0	MERGED:    4179381	TO_CACHE:    8398461
L1D WQ	ACCESS:    4823332	FORWARD:      85416	MERGED:      96992	TO_CACHE:    4726340

L1D UNIQUE REGIONS ACCESSED: 0
L1D REGIONS CONFLICTS: 0
L1D Cross Page Prefetch Requests: 0
L1D Same Page Prefetch Requests: 0
L1D ROI Sum of L1D PQ occupancy: 0
L1D PREFETCHES PUSHED FROM L2C: 0
L1I TOTAL     ACCESS:   11977635  HIT:   10601746  MISS:    1375889  HIT %:    88.5128  MISS %:    11.4872   MPKI: 27.5178
L1I LOAD      ACCESS:    9937056  HIT:    9686147  MISS:     250909  HIT %:     97.475  MISS %:    2.52498   MPKI: 5.01818
L1I PREFETCH  ACCESS:    2040579  HIT:     915599  MISS:    1124980  HIT %:    44.8696  MISS %:    55.1304   MPKI: 22.4996
L1I PREFETCH  REQUESTED:    2245014  ISSUED:    2241160  USEFUL:     723816  USELESS:     401139
L1I USEFUL LOAD PREFETCHES:     723816 PREFETCH ISSUED TO LOWER LEVEL:    1152177  ACCURACY: 62.8216
L1I TIMELY PREFETCHES:     723816 LATE PREFETCHES: 27197 DROPPED PREFETCHES: 9452
L1I PREFETCHES SAME FILL-ORIGIN LEVEL: 1152177 DIFFERENT FILL-ORIGIN LEVEL: 0
L1I AVERAGE MISS LATENCY: 1.22838e+06 cycles
L1I RQ	ACCESS:   14280808	FORWARD:          0	MERGED:    4320257	TO_CACHE:    9960551
L1I PQ	ACCESS:    2241160	FORWARD:          0	MERGED:      94295	TO_CACHE:    2146865

BTB TOTAL     ACCESS:    6374145  HIT:    5543345  MISS:     830800  HIT %:    86.9661  MISS %:    13.0339   MPKI: 16.616
BTB BRANCH_DIRECT_JUMP	ACCESS:     497927  HIT:     456451  MISS:      41476
BTB BRANCH_INDIRECT	ACCESS:     130586  HIT:     102079  MISS:      28507
BTB BRANCH_CONDITIONAL	ACCESS:    3697298  HIT:    3536491  MISS:     160807
BTB BRANCH_DIRECT_CALL	ACCESS:     625806  HIT:     549571  MISS:      76235
BTB BRANCH_INDIRECT_CALL	ACCESS:     389785  HIT:     241920  MISS:     147865
BTB BRANCH_RETURN	ACCESS:    1032743  HIT:     656833  MISS:     375910
BTB BRANCH_OTHER ACCESS:          0  HIT:          0  MISS:          0

L2C TOTAL     ACCESS:    2504561  HIT:    1600208  MISS:     904353  HIT %:    63.8918  MISS %:    36.1082   MPKI: 18.0871
L2C LOAD      ACCESS:     824240  HIT:     453716  MISS:     370524  HIT %:    55.0466  MISS %:    44.9534   MPKI: 7.41048
L2C DATA LOAD MPKI: 5.65004
L2C INSTRUCTION LOAD MPKI: 1.76044
L2C RFO       ACCESS:     127479  HIT:      47355  MISS:      80124  HIT %:    37.1473  MISS %:    62.8527   MPKI: 1.60248
L2C PREFETCH  ACCESS:    1178885  HIT:     781036  MISS:     397849  HIT %:    66.2521  MISS %:    33.7479   MPKI: 7.95698
L2C DATA PREFETCH MPKI: 0.38114
L2C INSTRUCTION PREFETCH MPKI: 7.57584
L2C WRITEBACK ACCESS:     266812  HIT:     253055  MISS:      13757  HIT %:    94.8439  MISS %:    5.15606   MPKI: 0.27514
L2C LOAD TRANSLATION ACCESS:      87479  HIT:      50885  MISS:      36594  HIT %:    58.1682  MISS %:    41.8318   MPKI: 0.73188
L2C TRANSLATION FROM L1D PREFETCHER ACCESS:      19666  HIT:      14161  MISS:       5505  HIT %:    72.0075  MISS %:    27.9925   MPKI: 0.1101
L2C PREFETCH  REQUESTED:      27036  ISSUED:      27036  USEFUL:      21508  USELESS:     379817
L2C USEFUL LOAD PREFETCHES:      21508 PREFETCH ISSUED TO LOWER LEVEL:     397966  ACCURACY: 5.40448
L2C TIMELY PREFETCHES:      21508 LATE PREFETCHES: 117 DROPPED PREFETCHES: 0
L2C PREFETCHES SAME FILL-ORIGIN LEVEL: 19174 DIFFERENT FILL-ORIGIN LEVEL: 0
L2C AVERAGE MISS LATENCY: 66.2946 cycles
L2C RQ	ACCESS:    1058892	FORWARD:          0	MERGED:          0	TO_CACHE:    1058865
L2C WQ	ACCESS:     266812	FORWARD:         27	MERGED:          0	TO_CACHE:     266812
L2C PQ	ACCESS:    1179213	FORWARD:          0	MERGED:          0	TO_CACHE:    1179213

L2C Instructions Evicting Data 200406
L2C Translations Evicting Data 18017
L2C Data Evicting Data 173593
L2C Instructions Evicting Instructions 244838
L2C Translations Evicting Instructions 22390
L2C Data Evicting Instructions 190265
L2C Instructions Evicting Translations 21570
L2C Translations Evicting Translations 1692
L2C Data Evicting Translations 17825
L2C Dense regions hint from L2: 0
PSCL5 TOTAL     ACCESS:      85174  HIT:      85174  MISS:          0  HIT %:        100  MISS %:          0   MPKI: 0
PSCL5 LOAD TRANSLATION ACCESS:      69096  HIT:      69096  MISS:          0  HIT %:        100  MISS %:          0   MPKI: 0
PSCL5 TRANSLATION FROM L1D PREFETCHER ACCESS:      16078  HIT:      16078  MISS:          0  HIT %:        100  MISS %:          0   MPKI: 0
PSCL5 PREFETCH  REQUESTED:          0  ISSUED:          0  USEFUL:          0  USELESS:          0
PSCL5 USEFUL LOAD PREFETCHES:          0 PREFETCH ISSUED TO LOWER LEVEL:          0  ACCURACY: -nan
PSCL5 TIMELY PREFETCHES:          0 LATE PREFETCHES: 0 DROPPED PREFETCHES: 0
PSCL5 PREFETCHES SAME FILL-ORIGIN LEVEL: 0 DIFFERENT FILL-ORIGIN LEVEL: 0

PSCL4 TOTAL     ACCESS:      81594  HIT:      81391  MISS:        203  HIT %:    99.7512  MISS %:   0.248793   MPKI: 0.00406
PSCL4 LOAD TRANSLATION ACCESS:      67520  HIT:      67317  MISS:        203  HIT %:    99.6993  MISS %:   0.300652   MPKI: 0.00406
PSCL4 TRANSLATION FROM L1D PREFETCHER ACCESS:      14074  HIT:      14074  MISS:          0  HIT %:        100  MISS %:          0   MPKI: 0
PSCL4 PREFETCH  REQUESTED:          0  ISSUED:          0  USEFUL:          0  USELESS:          0
PSCL4 USEFUL LOAD PREFETCHES:          0 PREFETCH ISSUED TO LOWER LEVEL:          0  ACCURACY: -nan
PSCL4 TIMELY PREFETCHES:          0 LATE PREFETCHES: 0 DROPPED PREFETCHES: 0
PSCL4 PREFETCHES SAME FILL-ORIGIN LEVEL: 0 DIFFERENT FILL-ORIGIN LEVEL: 0

PSCL3 TOTAL     ACCESS:      84464  HIT:      83944  MISS:        520  HIT %:    99.3844  MISS %:   0.615647   MPKI: 0.0104
PSCL3 LOAD TRANSLATION ACCESS:      68916  HIT:      68396  MISS:        520  HIT %:    99.2455  MISS %:   0.754542   MPKI: 0.0104
PSCL3 TRANSLATION FROM L1D PREFETCHER ACCESS:      15548  HIT:      15548  MISS:          0  HIT %:        100  MISS %:          0   MPKI: 0
PSCL3 PREFETCH  REQUESTED:          0  ISSUED:          0  USEFUL:          0  USELESS:          0
PSCL3 USEFUL LOAD PREFETCHES:          0 PREFETCH ISSUED TO LOWER LEVEL:          0  ACCURACY: -nan
PSCL3 TIMELY PREFETCHES:          0 LATE PREFETCHES: 0 DROPPED PREFETCHES: 0
PSCL3 PREFETCHES SAME FILL-ORIGIN LEVEL: 0 DIFFERENT FILL-ORIGIN LEVEL: 0

PSCL2 TOTAL     ACCESS:      83939  HIT:      63995  MISS:      19944  HIT %:    76.2399  MISS %:    23.7601   MPKI: 0.39888
PSCL2 LOAD TRANSLATION ACCESS:      71198  HIT:      51254  MISS:      19944  HIT %:     71.988  MISS %:     28.012   MPKI: 0.39888
PSCL2 TRANSLATION FROM L1D PREFETCHER ACCESS:      12741  HIT:      12741  MISS:          0  HIT %:        100  MISS %:          0   MPKI: 0
PSCL2 PREFETCH  REQUESTED:          0  ISSUED:          0  USEFUL:          0  USELESS:          0
PSCL2 USEFUL LOAD PREFETCHES:          0 PREFETCH ISSUED TO LOWER LEVEL:          0  ACCURACY: -nan
PSCL2 TIMELY PREFETCHES:          0 LATE PREFETCHES: 0 DROPPED PREFETCHES: 0
PSCL2 PREFETCHES SAME FILL-ORIGIN LEVEL: 0 DIFFERENT FILL-ORIGIN LEVEL: 0

LLC TOTAL     ACCESS:    1033270  HIT:     840830  MISS:     192440  HIT %:    81.3756  MISS %:    18.6244   MPKI: 3.8488
LLC LOAD      ACCESS:     370409  HIT:     289542  MISS:      80867  HIT %:    78.1682  MISS %:    21.8318   MPKI: 1.61734
LLC RFO       ACCESS:      80122  HIT:      29152  MISS:      50970  HIT %:    36.3845  MISS %:    63.6155   MPKI: 1.0194
LLC PREFETCH  ACCESS:     397966  HIT:     347256  MISS:      50710  HIT %:    87.2577  MISS %:    12.7423   MPKI: 1.0142
LLC WRITEBACK ACCESS:     142674  HIT:     137010  MISS:       5664  HIT %:    96.0301  MISS %:    3.96989   MPKI: 0.11328
LLC LOAD TRANSLATION ACCESS:      36594  HIT:      32694  MISS:       3900  HIT %:    89.3425  MISS %:    10.6575   MPKI: 0.078
LLC TRANSLATION FROM L1D PREFETCHER ACCESS:       5505  HIT:       5176  MISS:        329  HIT %:    94.0236  MISS %:    5.97639   MPKI: 0.00658
LLC PREFETCH  REQUESTED:          0  ISSUED:          0  USEFUL:       3813  USELESS:      44127
LLC USEFUL LOAD PREFETCHES:       3813 PREFETCH ISSUED TO LOWER LEVEL:      50710  ACCURACY: 7.51923
LLC TIMELY PREFETCHES:       3813 LATE PREFETCHES: 0 DROPPED PREFETCHES: 0
LLC PREFETCHES SAME FILL-ORIGIN LEVEL: 0 DIFFERENT FILL-ORIGIN LEVEL: 0
LLC AVERAGE MISS LATENCY: 172.222 cycles
LLC RQ	ACCESS:     492630	FORWARD:          0	MERGED:          0	TO_CACHE:     492630
LLC WQ	ACCESS:     142674	FORWARD:          0	MERGED:          0	TO_CACHE:     142674
LLC PQ	ACCESS:     397966	FORWARD:          0	MERGED:          0	TO_CACHE:     397966

LLC Dense regions hint to LLC: 0

RAW hits: 1027755
Loads Generated: 13691013
Loads sent to L1D: 12663258
Stores Generated: 4823327
Stores sent to L1D: 4823332
Major fault: 0 Minor fault: 8067
Allocated PAGES: 8067
I-Shadow cache 408 bytes
Touched + WorthPF tables 6144 bytes 
MMA filter 174 bytes 
FNL filter 272 bytes 
TOTAL PREFETCHER STORAGE SIZE: 25174 bytes
CPU 0 L1I next line prefetcher final stats
[Bingo] PHT Access: 7861
[Bingo] PHT Hit PC+Addr: 2053
[Bingo] PHT Hit PC+Offs: 3009
[Bingo] PHT Miss: 2799
[Bingo] Prefetch PC+Addr: 0
[Bingo] Prefetch PC+Offs: 0
[Bingo] Useful PC+Addr: 0
[Bingo] Useful PC+Offs: 0
[Bingo] Useless PC+Addr: 0
[Bingo] Useless PC+Offs: 0
[Bingo] L1 Prefetch per Region: 0
[Bingo] L2 Prefetch per Region: 6.39234
[Bingo] L3 Prefetch per Region: 0
[Bingo] No Prefetch per Region: 25.6077
[Bingo] Number of Voters Mean: 4.79727
[Bingo] Number of Voters SD: 3.96136
PHT read accesses: 31896
PHT write accesses: 5572
AT read accesses: 34256
AT write accesses: 34514
FT read accesses: 19404
FT write accesses: 7861
PS read accesses: 10352
PS write accesses: 5062
PHT tag read accesses: 211078
PHT tag write accesses: 7625
AT tag read accesses: 15274157
AT tag write accesses: 39828
FT tag read accesses: 14942931
FT tag write accesses: 21449
PS tag read accesses: 760409
PS tag write accesses: 15367

DRAM Statistics
 CHANNEL 0
 RQ ROW_BUFFER_HIT:      39168  ROW_BUFFER_MISS:     147605
 DBUS_CONGESTED:        124
 WQ ROW_BUFFER_HIT:      18485  ROW_BUFFER_MISS:      72473  FULL:          0

 AVG_CONGESTED_CYCLE: 4
 All warmup complete: 2
Channel 0 Bank busy for read cycles: 0
Channel 0 Bank busy for write cycles: 0
Channel 0
Rank 0
0banks busy for read cycles: 64831353
0banks busy for write cycles: 29947
1banks busy for read cycles: 9721069
1banks busy for write cycles: 4161525
2banks busy for read cycles: 2518850
2banks busy for write cycles: 1342413
3banks busy for read cycles: 840601
3banks busy for write cycles: 625833
4banks busy for read cycles: 409653
4banks busy for write cycles: 362541
5banks busy for read cycles: 270407
5banks busy for write cycles: 249711
6banks busy for read cycles: 258396
6banks busy for write cycles: 195595
7banks busy for read cycles: 146601
7banks busy for write cycles: 205896
8banks busy for read cycles: 167603
8banks busy for write cycles: 549878

CPU 0 Branch Prediction Accuracy: 95.439% MPKI: 9.02702 Average ROB Occupancy at Mispredict: 42.3122
Branch types
NOT_BRANCH: 40103828 80.2077%
BRANCH_DIRECT_JUMP: 497927 0.995854%
BRANCH_INDIRECT: 130586 0.261172%
BRANCH_CONDITIONAL: 7218977 14.438%
BRANCH_DIRECT_CALL: 625806 1.25161%
BRANCH_INDIRECT_CALL: 389785 0.77957%
BRANCH_RETURN: 1032743 2.06549%
BRANCH_OTHER: 0 0%

DRAM PAGES: 1048576
Allocated PAGES: 8067
