
*** ChampSim Multicore Out-of-Order Simulator ***

Warmup Instructions: 50000000
Simulation Instructions: 50000000
Number of CPUs: 1
LLC sets: 2048
LLC ways: 16
Off-chip DRAM Size: 4096 MB Channels: 1 Width: 64-bit Data Rate: 6400 MT/s
CPU 0 runs ../IPC-traces//server_019.champsimtrace.xz
.xz
NUM_OF_IPS_IN_CRITICAL_IP_TRAINING: 64
NUM_OF_CRITICAL_IP_TRAINING_TABLE_WAYS: 2
NUM_OF_CRITICAL_IP_TRAINING_TABLE_SETS: 32
WOBBLY_CRITICAL_IP_CACHE_SETS: 32
WOBBLY_CRITICAL_IP_CACHE_WAYS: 4
BTB has LRU replacement policy
ITLB has LRU replacement policy
DTLB has LRU replacement policy
STLB has LRU replacement policy
CPU 0 L1I next line prefetcher
L1I has LRU replacement policy
L1D has LRU replacement policy
Bingo PHT WAYS: 16 and PHT_SIZE: 16384
Initialize SRRIP state for L2C
Initialize DRRIP state for LLC
Heartbeat CPU 0 instructions: 10000002 cycles: 3295904 heartbeat IPC: 3.03407 cumulative IPC: 3.03407 (Simulation time: 0 hr 3 min 37 sec) 
Heartbeat CPU 0 instructions: 20000001 cycles: 6591899 heartbeat IPC: 3.03398 cumulative IPC: 3.03403 (Simulation time: 0 hr 6 min 30 sec) 
Heartbeat CPU 0 instructions: 30000001 cycles: 9891296 heartbeat IPC: 3.03086 cumulative IPC: 3.03297 (Simulation time: 0 hr 8 min 59 sec) 
Heartbeat CPU 0 instructions: 40000002 cycles: 13198688 heartbeat IPC: 3.02353 cumulative IPC: 3.0306 (Simulation time: 0 hr 11 min 8 sec) 
Heartbeat CPU 0 instructions: 50000001 cycles: 16495301 heartbeat IPC: 3.03342 cumulative IPC: 3.03117 (Simulation time: 0 hr 13 min 3 sec) 

Warmup complete CPU 0 instructions: 50000001 cycles: 16495301 (Simulation time: 0 hr 13 min 3 sec) 

Heartbeat CPU 0 instructions: 60000003 cycles: 39086707 heartbeat IPC: 0.442646 cumulative IPC: 0.442646 (Simulation time: 0 hr 16 min 32 sec) 
Heartbeat CPU 0 instructions: 70000002 cycles: 64213119 heartbeat IPC: 0.397988 cumulative IPC: 0.419131 (Simulation time: 0 hr 19 min 48 sec) 
Heartbeat CPU 0 instructions: 80000001 cycles: 88872282 heartbeat IPC: 0.405529 cumulative IPC: 0.414496 (Simulation time: 0 hr 22 min 53 sec) 
Heartbeat CPU 0 instructions: 90000001 cycles: 110149358 heartbeat IPC: 0.469989 cumulative IPC: 0.427104 (Simulation time: 0 hr 28 min 28 sec) 
Heartbeat CPU 0 instructions: 100000002 cycles: 130812898 heartbeat IPC: 0.483944 cumulative IPC: 0.437378 (Simulation time: 0 hr 33 min 42 sec) 
Finished CPU 0 instructions: 50000001 cycles: 114317597 cumulative IPC: 0.437378 (Simulation time: 0 hr 33 min 42 sec) 

ChampSim completed all CPUs

Region of Interest Statistics

CPU 0 cumulative IPC: 0.437378 instructions: 50000001 cycles: 114317597

CPU 0 Average Load ROB stall cycles: 3.46465e+07
CPU 0 Fraction of times ROB stalled by Loads: 45.9081
CPU 0 Percentage of Load stall cycles in Total stall cycles: 2.52839e+08
Issued all: 51750900
Issued LT all: 46357760
rob_not_full_when_issued_lt_all: 17151724
Issued LT one: 40723723
rob_not_full_when_issued_lt_one: 13252863
 Total stall cycles: 96369355
 Total load stall cycles: 243659173292915
CPU 0 NUM of IPS identified critical: 0
CPU 0 Num of Load IPs stalling ROB: 5507
Threshold modification factor: 0
Max PIST entries: 64
Min PIST entries: 0
Avg PIST entries: 30.22
Trouble in retire width: 0.824363
MaC = Marked as critical.
lt_50_percent_before_Mac: 0
gt_90_percent_before_Mac: 0
gt_75_percent_before_Mac: 0
gt_50_percent_before_Mac: 0
stall_proportion_bin_same_before_after: 0
stall_proportion_bin_lower_before_after: 0
stall_proportion_bin_upper_before_after: 0
average_stall_proportion_before: -nan
average_stall_proportion_after: -nan
Critical IP stalls, total frequency: 0
Non-critical IP stalls, total frequency: 3228589
Total Freq all stalling IPs: 3228589
stat_90_percent_critical_ip_stalls_freq: 2906796
stat_90_percent_non_critical_ip_stalls_freq: 321793
Critical_IP_ROB_Stalls_Bucket_0: 0
Non-critical_IP_ROB_Stalls_Bucket_0: 468054
Critical_IP_ROB_Stalls_Bucket_1: 0
Non-critical_IP_ROB_Stalls_Bucket_1: 584902
Critical_IP_ROB_Stalls_Bucket_2: 0
Non-critical_IP_ROB_Stalls_Bucket_2: 466006
Critical_IP_ROB_Stalls_Bucket_3: 0
Non-critical_IP_ROB_Stalls_Bucket_3: 331007
Critical_IP_ROB_Stalls_Bucket_4: 0
Non-critical_IP_ROB_Stalls_Bucket_4: 181716
Critical_IP_ROB_Stalls_Bucket_5: 0
Non-critical_IP_ROB_Stalls_Bucket_5: 168675
Critical_IP_ROB_Stalls_Bucket_6: 0
Non-critical_IP_ROB_Stalls_Bucket_6: 1028229
0 => IPs accounting for >50 percent of stalls, 1 => 55, 2 => 60, 3 => 65 and so on till 90.
percent50: 50.1899 num IPs:  8
percent55: 55.3336 num IPs: 14
percent60: 60.1699 num IPs: 32
percent65: 65.088 num IPs: 66
percent70: 70.0575 num IPs: 122
percent75: 75.0225 num IPs: 199
percent80: 80.0228 num IPs: 278
percent85: 85.0369 num IPs: 364
percent90: 90.0331 num IPs: 476
Critical_ROB_Stalls_Percent_0_Bucket_0: 28002
Non-critical_ROB_Stalls_Percent_0_Bucket_0: 440052
Critical_ROB_Stalls_Percent_0_Bucket_1: 91905
Non-critical_ROB_Stalls_Percent_0_Bucket_1: 492997
Critical_ROB_Stalls_Percent_0_Bucket_2: 177702
Non-critical_ROB_Stalls_Percent_0_Bucket_2: 288304
Critical_ROB_Stalls_Percent_0_Bucket_3: 208176
Non-critical_ROB_Stalls_Percent_0_Bucket_3: 122831
Critical_ROB_Stalls_Percent_0_Bucket_4: 119458
Non-critical_ROB_Stalls_Percent_0_Bucket_4: 62258
Critical_ROB_Stalls_Percent_0_Bucket_5: 116415
Non-critical_ROB_Stalls_Percent_0_Bucket_5: 52260
Critical_ROB_Stalls_Percent_0_Bucket_6: 878768
Non-critical_ROB_Stalls_Percent_0_Bucket_6: 149461
Critical_ROB_Stalls_Percent_1_Bucket_0: 52250
Non-critical_ROB_Stalls_Percent_1_Bucket_0: 415804
Critical_ROB_Stalls_Percent_1_Bucket_1: 151753
Non-critical_ROB_Stalls_Percent_1_Bucket_1: 433149
Critical_ROB_Stalls_Percent_1_Bucket_2: 202777
Non-critical_ROB_Stalls_Percent_1_Bucket_2: 263229
Critical_ROB_Stalls_Percent_1_Bucket_3: 219493
Non-critical_ROB_Stalls_Percent_1_Bucket_3: 111514
Critical_ROB_Stalls_Percent_1_Bucket_4: 129283
Non-critical_ROB_Stalls_Percent_1_Bucket_4: 52433
Critical_ROB_Stalls_Percent_1_Bucket_5: 125389
Non-critical_ROB_Stalls_Percent_1_Bucket_5: 43286
Critical_ROB_Stalls_Percent_1_Bucket_6: 905549
Non-critical_ROB_Stalls_Percent_1_Bucket_6: 122680
Critical_ROB_Stalls_Percent_2_Bucket_0: 115811
Non-critical_ROB_Stalls_Percent_2_Bucket_0: 352243
Critical_ROB_Stalls_Percent_2_Bucket_1: 197738
Non-critical_ROB_Stalls_Percent_2_Bucket_1: 387164
Critical_ROB_Stalls_Percent_2_Bucket_2: 221753
Non-critical_ROB_Stalls_Percent_2_Bucket_2: 244253
Critical_ROB_Stalls_Percent_2_Bucket_3: 230760
Non-critical_ROB_Stalls_Percent_2_Bucket_3: 100247
Critical_ROB_Stalls_Percent_2_Bucket_4: 134820
Non-critical_ROB_Stalls_Percent_2_Bucket_4: 46896
Critical_ROB_Stalls_Percent_2_Bucket_5: 129952
Non-critical_ROB_Stalls_Percent_2_Bucket_5: 38723
Critical_ROB_Stalls_Percent_2_Bucket_6: 911803
Non-critical_ROB_Stalls_Percent_2_Bucket_6: 116426
Critical_ROB_Stalls_Percent_3_Bucket_0: 178181
Non-critical_ROB_Stalls_Percent_3_Bucket_0: 289873
Critical_ROB_Stalls_Percent_3_Bucket_1: 229694
Non-critical_ROB_Stalls_Percent_3_Bucket_1: 355208
Critical_ROB_Stalls_Percent_3_Bucket_2: 246894
Non-critical_ROB_Stalls_Percent_3_Bucket_2: 219112
Critical_ROB_Stalls_Percent_3_Bucket_3: 237874
Non-critical_ROB_Stalls_Percent_3_Bucket_3: 93133
Critical_ROB_Stalls_Percent_3_Bucket_4: 138974
Non-critical_ROB_Stalls_Percent_3_Bucket_4: 42742
Critical_ROB_Stalls_Percent_3_Bucket_5: 135054
Non-critical_ROB_Stalls_Percent_3_Bucket_5: 33621
Critical_ROB_Stalls_Percent_3_Bucket_6: 934753
Non-critical_ROB_Stalls_Percent_3_Bucket_6: 93476
Critical_ROB_Stalls_Percent_4_Bucket_0: 211281
Non-critical_ROB_Stalls_Percent_4_Bucket_0: 256773
Critical_ROB_Stalls_Percent_4_Bucket_1: 276903
Non-critical_ROB_Stalls_Percent_4_Bucket_1: 307999
Critical_ROB_Stalls_Percent_4_Bucket_2: 280656
Non-critical_ROB_Stalls_Percent_4_Bucket_2: 185350
Critical_ROB_Stalls_Percent_4_Bucket_3: 247276
Non-critical_ROB_Stalls_Percent_4_Bucket_3: 83731
Critical_ROB_Stalls_Percent_4_Bucket_4: 145776
Non-critical_ROB_Stalls_Percent_4_Bucket_4: 35940
Critical_ROB_Stalls_Percent_4_Bucket_5: 142224
Non-critical_ROB_Stalls_Percent_4_Bucket_5: 26451
Critical_ROB_Stalls_Percent_4_Bucket_6: 957753
Non-critical_ROB_Stalls_Percent_4_Bucket_6: 70476
Critical_ROB_Stalls_Percent_5_Bucket_0: 241188
Non-critical_ROB_Stalls_Percent_5_Bucket_0: 226866
Critical_ROB_Stalls_Percent_5_Bucket_1: 334114
Non-critical_ROB_Stalls_Percent_5_Bucket_1: 250788
Critical_ROB_Stalls_Percent_5_Bucket_2: 310098
Non-critical_ROB_Stalls_Percent_5_Bucket_2: 155908
Critical_ROB_Stalls_Percent_5_Bucket_3: 270782
Non-critical_ROB_Stalls_Percent_5_Bucket_3: 60225
Critical_ROB_Stalls_Percent_5_Bucket_4: 159004
Non-critical_ROB_Stalls_Percent_5_Bucket_4: 22712
Critical_ROB_Stalls_Percent_5_Bucket_5: 146825
Non-critical_ROB_Stalls_Percent_5_Bucket_5: 21850
Critical_ROB_Stalls_Percent_5_Bucket_6: 960152
Non-critical_ROB_Stalls_Percent_5_Bucket_6: 68077
Critical_ROB_Stalls_Percent_6_Bucket_0: 273785
Non-critical_ROB_Stalls_Percent_6_Bucket_0: 194269
Critical_ROB_Stalls_Percent_6_Bucket_1: 393037
Non-critical_ROB_Stalls_Percent_6_Bucket_1: 191865
Critical_ROB_Stalls_Percent_6_Bucket_2: 353157
Non-critical_ROB_Stalls_Percent_6_Bucket_2: 112849
Critical_ROB_Stalls_Percent_6_Bucket_3: 280099
Non-critical_ROB_Stalls_Percent_6_Bucket_3: 50908
Critical_ROB_Stalls_Percent_6_Bucket_4: 163260
Non-critical_ROB_Stalls_Percent_6_Bucket_4: 18456
Critical_ROB_Stalls_Percent_6_Bucket_5: 151232
Non-critical_ROB_Stalls_Percent_6_Bucket_5: 17443
Critical_ROB_Stalls_Percent_6_Bucket_6: 969034
Non-critical_ROB_Stalls_Percent_6_Bucket_6: 59195
Critical_ROB_Stalls_Percent_7_Bucket_0: 316287
Non-critical_ROB_Stalls_Percent_7_Bucket_0: 151767
Critical_ROB_Stalls_Percent_7_Bucket_1: 443379
Non-critical_ROB_Stalls_Percent_7_Bucket_1: 141523
Critical_ROB_Stalls_Percent_7_Bucket_2: 392529
Non-critical_ROB_Stalls_Percent_7_Bucket_2: 73477
Critical_ROB_Stalls_Percent_7_Bucket_3: 295398
Non-critical_ROB_Stalls_Percent_7_Bucket_3: 35609
Critical_ROB_Stalls_Percent_7_Bucket_4: 166660
Non-critical_ROB_Stalls_Percent_7_Bucket_4: 15056
Critical_ROB_Stalls_Percent_7_Bucket_5: 153960
Non-critical_ROB_Stalls_Percent_7_Bucket_5: 14715
Critical_ROB_Stalls_Percent_7_Bucket_6: 977275
Non-critical_ROB_Stalls_Percent_7_Bucket_6: 50954
Critical_ROB_Stalls_Percent_8_Bucket_0: 366278
Non-critical_ROB_Stalls_Percent_8_Bucket_0: 101776
Critical_ROB_Stalls_Percent_8_Bucket_1: 496420
Non-critical_ROB_Stalls_Percent_8_Bucket_1: 88482
Critical_ROB_Stalls_Percent_8_Bucket_2: 415979
Non-critical_ROB_Stalls_Percent_8_Bucket_2: 50027
Critical_ROB_Stalls_Percent_8_Bucket_3: 304813
Non-critical_ROB_Stalls_Percent_8_Bucket_3: 26194
Critical_ROB_Stalls_Percent_8_Bucket_4: 171244
Non-critical_ROB_Stalls_Percent_8_Bucket_4: 10472
Critical_ROB_Stalls_Percent_8_Bucket_5: 157744
Non-critical_ROB_Stalls_Percent_8_Bucket_5: 10931
Critical_ROB_Stalls_Percent_8_Bucket_6: 994318
Non-critical_ROB_Stalls_Percent_8_Bucket_6: 33911
Average ROB occupancy Load Stall Begin: 182.358
Average ROB occupancy Load Stall End: 191.535
Min ROB occupancy Load Stall Begin: 1
Max ROB occupancy Load Stall Begin: 352
Min ROB occupancy Load Stall End: 1
Max ROB occupancy Load Stall End: 352
Average ROB occupancy Critical Load Stall Begin: -nan
Average ROB occupancy Critical Load Stall End: -nan
Min ROB occupancy Critical Load Stall Begin: 400
Max ROB occupancy Critical Load Stall Begin: 0
Min ROB occupancy Critical Load Stall End: 400
Max ROB occupancy Critical Load Stall End: 0
 ROB Load Stall Begin Bucket Count 0: 660416
 ROB Load Stall End Bucket Count 0: 468054
 ROB Critical Load Stall Begin Bucket Count 0: 0
 ROB Critical Load Stall End Bucket Count 0: 0
 ROB Load Stall Begin Bucket Count 1: 539814
 ROB Load Stall End Bucket Count 1: 584902
 ROB Critical Load Stall Begin Bucket Count 1: 0
 ROB Critical Load Stall End Bucket Count 1: 0
 ROB Load Stall Begin Bucket Count 2: 421256
 ROB Load Stall End Bucket Count 2: 466006
 ROB Critical Load Stall Begin Bucket Count 2: 0
 ROB Critical Load Stall End Bucket Count 2: 0
 ROB Load Stall Begin Bucket Count 3: 277326
 ROB Load Stall End Bucket Count 3: 331007
 ROB Critical Load Stall Begin Bucket Count 3: 0
 ROB Critical Load Stall End Bucket Count 3: 0
 ROB Load Stall Begin Bucket Count 4: 169311
 ROB Load Stall End Bucket Count 4: 181716
 ROB Critical Load Stall Begin Bucket Count 4: 0
 ROB Critical Load Stall End Bucket Count 4: 0
 ROB Load Stall Begin Bucket Count 5: 166406
 ROB Load Stall End Bucket Count 5: 168675
 ROB Critical Load Stall Begin Bucket Count 5: 0
 ROB Critical Load Stall End Bucket Count 5: 0
 ROB Load Stall Begin Bucket Count 6: 994060
 ROB Load Stall End Bucket Count 6: 1028229
 ROB Critical Load Stall Begin Bucket Count 6: 0
 ROB Critical Load Stall End Bucket Count 6: 0
PIST Tag Read Accesses: 2213562
PIST Read Accesses: 1106781
PIST Tag Write Accesses: 2213562
PIST Write Accesses: 1106781
Criticality detector called times: 1555634
Max global_stall_cycles_count: 3814125
Threshold Modified: 0 times, factor: 0
Sturdy critical IP cache stats: 
 Unused entries: 0
CIC Tag Read Accesses: 0
CIC Read Accesses: 0
CIC Tag Write Accesses: 0
CIC Write Accesses: 0
Wobbly critical IP cache stats: 
 Unused entries: 112
CIC Tag Read Accesses: 170068863
CIC Read Accesses: 0
CIC Tag Write Accesses: 85627
CIC Write Accesses: 0
ITLB TOTAL     ACCESS:   10112686  HIT:    9691892  MISS:     420794  HIT %:    95.8389  MISS %:    4.16105   MPKI: 8.41588
ITLB LOAD TRANSLATION ACCESS:    8371904  HIT:    8356704  MISS:      15200  HIT %:    99.8184  MISS %:    0.18156   MPKI: 0.304
ITLB TRANSLATION FROM L1D PREFETCHER ACCESS:    1740782  HIT:    1335188  MISS:     405594  HIT %:    76.7005  MISS %:    23.2995   MPKI: 8.11188
ITLB PREFETCH  REQUESTED:          0  ISSUED:          0  USEFUL:     365690  USELESS:      39900
ITLB USEFUL LOAD PREFETCHES:     365690 PREFETCH ISSUED TO LOWER LEVEL:          0  ACCURACY: inf
ITLB TIMELY PREFETCHES:     365690 LATE PREFETCHES: 269 DROPPED PREFETCHES: 92
ITLB PREFETCHES SAME FILL-ORIGIN LEVEL: 0 DIFFERENT FILL-ORIGIN LEVEL: 0
ITLB AVERAGE MISS LATENCY: 43509.2 cycles
ITLB RQ	ACCESS:   14270879	FORWARD:          0	MERGED:    4117459	TO_CACHE:   10153420

DTLB TOTAL     ACCESS:   10556093  HIT:   10113632  MISS:     442461  HIT %:    95.8085  MISS %:    4.19152   MPKI: 8.84922
DTLB LOAD TRANSLATION ACCESS:   10556093  HIT:   10113632  MISS:     442461  HIT %:    95.8085  MISS %:    4.19152   MPKI: 8.84922
DTLB PREFETCH  REQUESTED:          0  ISSUED:          0  USEFUL:          0  USELESS:          0
DTLB USEFUL LOAD PREFETCHES:          0 PREFETCH ISSUED TO LOWER LEVEL:          0  ACCURACY: -nan
DTLB TIMELY PREFETCHES:          0 LATE PREFETCHES: 0 DROPPED PREFETCHES: 0
DTLB PREFETCHES SAME FILL-ORIGIN LEVEL: 0 DIFFERENT FILL-ORIGIN LEVEL: 0
DTLB AVERAGE MISS LATENCY: 27.4304 cycles
DTLB RQ	ACCESS:   15313640	FORWARD:          0	MERGED:    4676794	TO_CACHE:   10636846

STLB TOTAL     ACCESS:     863255  HIT:     797207  MISS:      66048  HIT %:     92.349  MISS %:    7.65104   MPKI: 1.32096
STLB LOAD TRANSLATION ACCESS:     457392  HIT:     392303  MISS:      65089  HIT %:    85.7695  MISS %:    14.2305   MPKI: 1.30178
STLB TRANSLATION FROM L1D PREFETCHER ACCESS:     405863  HIT:     404904  MISS:        959  HIT %:    99.7637  MISS %:   0.236287   MPKI: 0.01918
STLB PREFETCH  REQUESTED:          0  ISSUED:          0  USEFUL:        746  USELESS:        231
STLB USEFUL LOAD PREFETCHES:        746 PREFETCH ISSUED TO LOWER LEVEL:          0  ACCURACY: inf
STLB TIMELY PREFETCHES:        746 LATE PREFETCHES: 0 DROPPED PREFETCHES: 92
STLB PREFETCHES SAME FILL-ORIGIN LEVEL: 0 DIFFERENT FILL-ORIGIN LEVEL: 0
STLB AVERAGE MISS LATENCY: 128.454 cycles
STLB RQ	ACCESS:     863348	FORWARD:          0	MERGED:          0	TO_CACHE:     863348

STLB Hit, L1D data hit: 0
STLB Hit, L2C data hit: 0
STLB Hit, LLC data hit: 0
STLB Hit, LLC data miss: 0
STLB STLB hints to L2: 0
L1D TOTAL     ACCESS:   13286598  HIT:   11497822  MISS:    1788776  HIT %:     86.537  MISS %:     13.463   MPKI: 35.7755
L1D LOAD      ACCESS:    7269854  HIT:    6396332  MISS:     873522  HIT %:    87.9843  MISS %:    12.0157   MPKI: 17.4704
L1D RFO       ACCESS:    6016744  HIT:    5101490  MISS:     915254  HIT %:    84.7882  MISS %:    15.2118   MPKI: 18.3051
L1D PREFETCH  REQUESTED:          0  ISSUED:          0  USEFUL:          0  USELESS:          0
L1D USEFUL LOAD PREFETCHES:          0 PREFETCH ISSUED TO LOWER LEVEL:          0  ACCURACY: -nan
L1D TIMELY PREFETCHES:          0 LATE PREFETCHES: 0 DROPPED PREFETCHES: 0
L1D PREFETCHES SAME FILL-ORIGIN LEVEL: 0 DIFFERENT FILL-ORIGIN LEVEL: 0
L1D AVERAGE MISS LATENCY: 156.193 cycles
L1D RQ	ACCESS:   10685216	FORWARD:          0	MERGED:    3270786	TO_CACHE:    7308232
L1D WQ	ACCESS:    8106889	FORWARD:     106198	MERGED:     101481	TO_CACHE:    8005408

L1D UNIQUE REGIONS ACCESSED: 0
L1D REGIONS CONFLICTS: 0
L1D Cross Page Prefetch Requests: 0
L1D Same Page Prefetch Requests: 0
L1D ROI Sum of L1D PQ occupancy: 0
L1D PREFETCHES PUSHED FROM L2C: 0
L1I TOTAL     ACCESS:   14174339  HIT:   11386702  MISS:    2787637  HIT %:    80.3332  MISS %:    19.6668   MPKI: 55.7527
L1I LOAD      ACCESS:    9736099  HIT:    9709972  MISS:      26127  HIT %:    99.7316  MISS %:   0.268352   MPKI: 0.52254
L1I PREFETCH  ACCESS:    4438240  HIT:    1676730  MISS:    2761510  HIT %:    37.7792  MISS %:    62.2208   MPKI: 55.2302
L1I PREFETCH  REQUESTED:    4695335  ISSUED:    4683903  USEFUL:    2306007  USELESS:     455540
L1I USEFUL LOAD PREFETCHES:    2306007 PREFETCH ISSUED TO LOWER LEVEL:    2774899  ACCURACY: 83.1024
L1I TIMELY PREFETCHES:    2306007 LATE PREFETCHES: 11867 DROPPED PREFETCHES: 157
L1I PREFETCHES SAME FILL-ORIGIN LEVEL: 2774899 DIFFERENT FILL-ORIGIN LEVEL: 0
L1I AVERAGE MISS LATENCY: 344872 cycles
L1I RQ	ACCESS:   14076202	FORWARD:          0	MERGED:    4333183	TO_CACHE:    9743019
L1I PQ	ACCESS:    4683903	FORWARD:          0	MERGED:     156043	TO_CACHE:    4527860

BTB TOTAL     ACCESS:    5496535  HIT:    5258217  MISS:     238318  HIT %:    95.6642  MISS %:    4.33579   MPKI: 4.76636
BTB BRANCH_DIRECT_JUMP	ACCESS:     462382  HIT:     460596  MISS:       1786
BTB BRANCH_INDIRECT	ACCESS:      45460  HIT:      45289  MISS:        171
BTB BRANCH_CONDITIONAL	ACCESS:    3246751  HIT:    3240930  MISS:       5821
BTB BRANCH_DIRECT_CALL	ACCESS:     666239  HIT:     662428  MISS:       3811
BTB BRANCH_INDIRECT_CALL	ACCESS:     204728  HIT:     179061  MISS:      25667
BTB BRANCH_RETURN	ACCESS:     870975  HIT:     669913  MISS:     201062
BTB BRANCH_OTHER ACCESS:          0  HIT:          0  MISS:          0

L2C TOTAL     ACCESS:    6253565  HIT:    4355897  MISS:    1897668  HIT %:    69.6546  MISS %:    30.3454   MPKI: 37.9534
L2C LOAD      ACCESS:     887774  HIT:     477537  MISS:     410237  HIT %:    53.7904  MISS %:    46.2096   MPKI: 8.20474
L2C DATA LOAD MPKI: 8.07762
L2C INSTRUCTION LOAD MPKI: 0.12712
L2C RFO       ACCESS:     915251  HIT:      29689  MISS:     885562  HIT %:    3.24381  MISS %:    96.7562   MPKI: 17.7112
L2C PREFETCH  ACCESS:    3195942  HIT:    2687102  MISS:     508840  HIT %:    84.0786  MISS %:    15.9214   MPKI: 10.1768
L2C DATA PREFETCH MPKI: 7.24614
L2C INSTRUCTION PREFETCH MPKI: 2.93066
L2C WRITEBACK ACCESS:    1161854  HIT:    1100645  MISS:      61209  HIT %:    94.7318  MISS %:    5.26822   MPKI: 1.22418
L2C LOAD TRANSLATION ACCESS:      91138  HIT:      60316  MISS:      30822  HIT %:     66.181  MISS %:     33.819   MPKI: 0.61644
L2C TRANSLATION FROM L1D PREFETCHER ACCESS:       1606  HIT:        608  MISS:        998  HIT %:     37.858  MISS %:     62.142   MPKI: 0.01996
L2C PREFETCH  REQUESTED:     436293  ISSUED:     436293  USEFUL:     286805  USELESS:     222389
L2C USEFUL LOAD PREFETCHES:     286805 PREFETCH ISSUED TO LOWER LEVEL:     511065  ACCURACY: 56.1191
L2C TIMELY PREFETCHES:     286805 LATE PREFETCHES: 2225 DROPPED PREFETCHES: 0
L2C PREFETCHES SAME FILL-ORIGIN LEVEL: 364532 DIFFERENT FILL-ORIGIN LEVEL: 0
L2C AVERAGE MISS LATENCY: 182.469 cycles
L2C RQ	ACCESS:    1895780	FORWARD:          0	MERGED:          0	TO_CACHE:    1895769
L2C WQ	ACCESS:    1161854	FORWARD:         11	MERGED:          0	TO_CACHE:    1161854
L2C PQ	ACCESS:    3209674	FORWARD:          0	MERGED:          0	TO_CACHE:    3209674

L2C Instructions Evicting Data 135636
L2C Translations Evicting Data 28607
L2C Data Evicting Data 1494212
L2C Instructions Evicting Instructions 14657
L2C Translations Evicting Instructions 2706
L2C Data Evicting Instructions 129651
L2C Instructions Evicting Translations 2596
L2C Translations Evicting Translations 507
L2C Data Evicting Translations 27887
L2C Dense regions hint from L2: 0
PSCL5 TOTAL     ACCESS:      66140  HIT:      66140  MISS:          0  HIT %:        100  MISS %:          0   MPKI: 0
PSCL5 LOAD TRANSLATION ACCESS:      65089  HIT:      65089  MISS:          0  HIT %:        100  MISS %:          0   MPKI: 0
PSCL5 TRANSLATION FROM L1D PREFETCHER ACCESS:       1051  HIT:       1051  MISS:          0  HIT %:        100  MISS %:          0   MPKI: 0
PSCL5 PREFETCH  REQUESTED:          0  ISSUED:          0  USEFUL:          0  USELESS:          0
PSCL5 USEFUL LOAD PREFETCHES:          0 PREFETCH ISSUED TO LOWER LEVEL:          0  ACCURACY: -nan
PSCL5 TIMELY PREFETCHES:          0 LATE PREFETCHES: 0 DROPPED PREFETCHES: 0
PSCL5 PREFETCHES SAME FILL-ORIGIN LEVEL: 0 DIFFERENT FILL-ORIGIN LEVEL: 0

PSCL4 TOTAL     ACCESS:      65146  HIT:      65033  MISS:        113  HIT %:    99.8265  MISS %:   0.173457   MPKI: 0.00226
PSCL4 LOAD TRANSLATION ACCESS:      64169  HIT:      64056  MISS:        113  HIT %:    99.8239  MISS %:   0.176097   MPKI: 0.00226
PSCL4 TRANSLATION FROM L1D PREFETCHER ACCESS:        977  HIT:        977  MISS:          0  HIT %:        100  MISS %:          0   MPKI: 0
PSCL4 PREFETCH  REQUESTED:          0  ISSUED:          0  USEFUL:          0  USELESS:          0
PSCL4 USEFUL LOAD PREFETCHES:          0 PREFETCH ISSUED TO LOWER LEVEL:          0  ACCURACY: -nan
PSCL4 TIMELY PREFETCHES:          0 LATE PREFETCHES: 0 DROPPED PREFETCHES: 0
PSCL4 PREFETCHES SAME FILL-ORIGIN LEVEL: 0 DIFFERENT FILL-ORIGIN LEVEL: 0

PSCL3 TOTAL     ACCESS:      65743  HIT:      65273  MISS:        470  HIT %:    99.2851  MISS %:   0.714905   MPKI: 0.0094
PSCL3 LOAD TRANSLATION ACCESS:      64815  HIT:      64345  MISS:        470  HIT %:    99.2749  MISS %:   0.725141   MPKI: 0.0094
PSCL3 TRANSLATION FROM L1D PREFETCHER ACCESS:        928  HIT:        928  MISS:          0  HIT %:        100  MISS %:          0   MPKI: 0
PSCL3 PREFETCH  REQUESTED:          0  ISSUED:          0  USEFUL:          0  USELESS:          0
PSCL3 USEFUL LOAD PREFETCHES:          0 PREFETCH ISSUED TO LOWER LEVEL:          0  ACCURACY: -nan
PSCL3 TIMELY PREFETCHES:          0 LATE PREFETCHES: 0 DROPPED PREFETCHES: 0
PSCL3 PREFETCHES SAME FILL-ORIGIN LEVEL: 0 DIFFERENT FILL-ORIGIN LEVEL: 0

PSCL2 TOTAL     ACCESS:      66059  HIT:      40094  MISS:      25965  HIT %:    60.6942  MISS %:    39.3058   MPKI: 0.5193
PSCL2 LOAD TRANSLATION ACCESS:      65431  HIT:      39466  MISS:      25965  HIT %:     60.317  MISS %:     39.683   MPKI: 0.5193
PSCL2 TRANSLATION FROM L1D PREFETCHER ACCESS:        628  HIT:        628  MISS:          0  HIT %:        100  MISS %:          0   MPKI: 0
PSCL2 PREFETCH  REQUESTED:          0  ISSUED:          0  USEFUL:          0  USELESS:          0
PSCL2 USEFUL LOAD PREFETCHES:          0 PREFETCH ISSUED TO LOWER LEVEL:          0  ACCURACY: -nan
PSCL2 TIMELY PREFETCHES:          0 LATE PREFETCHES: 0 DROPPED PREFETCHES: 0
PSCL2 PREFETCHES SAME FILL-ORIGIN LEVEL: 0 DIFFERENT FILL-ORIGIN LEVEL: 0

LLC TOTAL     ACCESS:    2930905  HIT:     913746  MISS:    2017159  HIT %:    31.1762  MISS %:    68.8238   MPKI: 40.3432
LLC LOAD      ACCESS:     408010  HIT:     217669  MISS:     190341  HIT %:    53.3489  MISS %:    46.6511   MPKI: 3.80682
LLC RFO       ACCESS:     885562  HIT:     212369  MISS:     673193  HIT %:    23.9813  MISS %:    76.0187   MPKI: 13.4639
LLC PREFETCH  ACCESS:     511065  HIT:     120859  MISS:     390206  HIT %:    23.6485  MISS %:    76.3515   MPKI: 7.80412
LLC WRITEBACK ACCESS:    1094448  HIT:     353588  MISS:     740860  HIT %:    32.3074  MISS %:    67.6926   MPKI: 14.8172
LLC LOAD TRANSLATION ACCESS:      30822  HIT:       8985  MISS:      21837  HIT %:    29.1513  MISS %:    70.8487   MPKI: 0.43674
LLC TRANSLATION FROM L1D PREFETCHER ACCESS:        998  HIT:        276  MISS:        722  HIT %:    27.6553  MISS %:    72.3447   MPKI: 0.01444
LLC PREFETCH  REQUESTED:          0  ISSUED:          0  USEFUL:        828  USELESS:     388708
LLC USEFUL LOAD PREFETCHES:        828 PREFETCH ISSUED TO LOWER LEVEL:     390206  ACCURACY: 0.212196
LLC TIMELY PREFETCHES:        828 LATE PREFETCHES: 0 DROPPED PREFETCHES: 0
LLC PREFETCHES SAME FILL-ORIGIN LEVEL: 0 DIFFERENT FILL-ORIGIN LEVEL: 0
LLC AVERAGE MISS LATENCY: 143.213 cycles
LLC RQ	ACCESS:    1325394	FORWARD:          0	MERGED:          0	TO_CACHE:    1325392
LLC WQ	ACCESS:    1094448	FORWARD:          2	MERGED:          0	TO_CACHE:    1094448
LLC PQ	ACCESS:     511065	FORWARD:          0	MERGED:          0	TO_CACHE:     511065

LLC Dense regions hint to LLC: 0

RAW hits: 1298729
Loads Generated: 11983945
Loads sent to L1D: 10685216
Stores Generated: 8106873
Stores sent to L1D: 8106889
Major fault: 0 Minor fault: 25901
Allocated PAGES: 25901
I-Shadow cache 408 bytes
Touched + WorthPF tables 6144 bytes 
MMA filter 174 bytes 
FNL filter 272 bytes 
TOTAL PREFETCHER STORAGE SIZE: 25174 bytes
CPU 0 L1I next line prefetcher final stats
[Bingo] PHT Access: 75903
[Bingo] PHT Hit PC+Addr: 778
[Bingo] PHT Hit PC+Offs: 73844
[Bingo] PHT Miss: 1281
[Bingo] Prefetch PC+Addr: 0
[Bingo] Prefetch PC+Offs: 0
[Bingo] Useful PC+Addr: 0
[Bingo] Useful PC+Offs: 0
[Bingo] Useless PC+Addr: 0
[Bingo] Useless PC+Offs: 0
[Bingo] L1 Prefetch per Region: 0
[Bingo] L2 Prefetch per Region: 6.8738
[Bingo] L3 Prefetch per Region: 0
[Bingo] No Prefetch per Region: 25.1262
[Bingo] Number of Voters Mean: 15.1004
[Bingo] Number of Voters SD: 3.02308
PHT read accesses: 1141473
PHT write accesses: 53789
AT read accesses: 364622
AT write accesses: 397589
FT read accesses: 167376
FT write accesses: 75903
PS read accesses: 160499
PS write accesses: 74622
PHT tag read accesses: 2898257
PHT tag write accesses: 54567
AT tag read accesses: 39430434
AT tag write accesses: 418417
FT tag read accesses: 35165453
FT tag write accesses: 189196
PS tag read accesses: 9209312
PS tag write accesses: 234884

DRAM Statistics
 CHANNEL 0
 RQ ROW_BUFFER_HIT:     559914  ROW_BUFFER_MISS:     716352
 DBUS_CONGESTED:        573
 WQ ROW_BUFFER_HIT:     171720  ROW_BUFFER_MISS:     610163  FULL:      15257

 AVG_CONGESTED_CYCLE: 3
 All warmup complete: 2
Channel 0 Bank busy for read cycles: 0
Channel 0 Bank busy for write cycles: 0
Channel 0
Rank 0
0banks busy for read cycles: 31196086
0banks busy for write cycles: 76644
1banks busy for read cycles: 19741446
1banks busy for write cycles: 11344100
2banks busy for read cycles: 7881427
2banks busy for write cycles: 6100867
3banks busy for read cycles: 6365310
3banks busy for write cycles: 3512300
4banks busy for read cycles: 2366548
4banks busy for write cycles: 2204020
5banks busy for read cycles: 929941
5banks busy for write cycles: 1580996
6banks busy for read cycles: 962264
6banks busy for write cycles: 1363770
7banks busy for read cycles: 1480358
7banks busy for write cycles: 1942932
8banks busy for read cycles: 6551564
8banks busy for write cycles: 8717025

CPU 0 Branch Prediction Accuracy: 99.2186% MPKI: 1.3219 Average ROB Occupancy at Mispredict: 133.893
Branch types
NOT_BRANCH: 41540709 83.0814%
BRANCH_DIRECT_JUMP: 462382 0.924764%
BRANCH_INDIRECT: 45460 0.09092%
BRANCH_CONDITIONAL: 6209260 12.4185%
BRANCH_DIRECT_CALL: 666239 1.33248%
BRANCH_INDIRECT_CALL: 204728 0.409456%
BRANCH_RETURN: 870975 1.74195%
BRANCH_OTHER: 0 0%

DRAM PAGES: 1048576
Allocated PAGES: 25901
