
*** ChampSim Multicore Out-of-Order Simulator ***

Warmup Instructions: 50000000
Simulation Instructions: 50000000
Number of CPUs: 1
LLC sets: 2048
LLC ways: 16
Off-chip DRAM Size: 4096 MB Channels: 1 Width: 64-bit Data Rate: 6400 MT/s
CPU 0 runs ../IPC-traces//server_030.champsimtrace.xz
.xz
BTB has LRU replacement policy
ITLB has LRU replacement policy
DTLB has LRU replacement policy
STLB has LRU replacement policy
CPU 0 L1I next line prefetcher
L1I has LRU replacement policy
IP Table Entries: 64
L1D has LRU replacement policy
Initialize SRRIP state for L2C
Initialize DRRIP state for LLC
Heartbeat CPU 0 instructions: 10000003 cycles: 2885017 heartbeat IPC: 3.46619 cumulative IPC: 3.46619 (Simulation time: 0 hr 3 min 20 sec) 
Heartbeat CPU 0 instructions: 20000003 cycles: 5766616 heartbeat IPC: 3.4703 cumulative IPC: 3.46824 (Simulation time: 0 hr 6 min 44 sec) 
Heartbeat CPU 0 instructions: 30000002 cycles: 8648994 heartbeat IPC: 3.46936 cumulative IPC: 3.46861 (Simulation time: 0 hr 10 min 4 sec) 
Heartbeat CPU 0 instructions: 40000001 cycles: 11531743 heartbeat IPC: 3.46891 cumulative IPC: 3.46869 (Simulation time: 0 hr 13 min 22 sec) 
Heartbeat CPU 0 instructions: 50000002 cycles: 14415250 heartbeat IPC: 3.468 cumulative IPC: 3.46855 (Simulation time: 0 hr 16 min 32 sec) 

Warmup complete CPU 0 instructions: 50000002 cycles: 14415250 (Simulation time: 0 hr 16 min 32 sec) 

Heartbeat CPU 0 instructions: 60000000 cycles: 30535656 heartbeat IPC: 0.620332 cumulative IPC: 0.620332 (Simulation time: 0 hr 19 min 52 sec) 
Heartbeat CPU 0 instructions: 70000002 cycles: 46671470 heartbeat IPC: 0.61974 cumulative IPC: 0.620035 (Simulation time: 0 hr 23 min 9 sec) 
Heartbeat CPU 0 instructions: 80000001 cycles: 62654628 heartbeat IPC: 0.625659 cumulative IPC: 0.621899 (Simulation time: 0 hr 26 min 30 sec) 
*** Reached end of trace for Core: 0 Repeating trace: ../IPC-traces//server_030.champsimtrace.xz
Heartbeat CPU 0 instructions: 90000002 cycles: 78704809 heartbeat IPC: 0.623046 cumulative IPC: 0.622185 (Simulation time: 0 hr 29 min 49 sec) 
Heartbeat CPU 0 instructions: 100000000 cycles: 94605016 heartbeat IPC: 0.628923 cumulative IPC: 0.623521 (Simulation time: 0 hr 33 min 13 sec) 
Finished CPU 0 instructions: 50000002 cycles: 80189767 cumulative IPC: 0.623521 (Simulation time: 0 hr 33 min 13 sec) 

ChampSim completed all CPUs

Region of Interest Statistics

CPU 0 cumulative IPC: 0.623521 instructions: 50000002 cycles: 80189767

CPU 0 Average Load ROB stall cycles: 1.94665e+07
CPU 0 Fraction of times ROB stalled by Loads: 35.6672
CPU 0 Percentage of Load stall cycles in Total stall cycles: 2.76046e+08
Issued all: 28211212
Issued LT all: 22306595
rob_not_full_when_issued_lt_all: 22260611
Issued LT one: 17391910
rob_not_full_when_issued_lt_one: 17352821
 Total stall cycles: 67659689
 Total load stall cycles: 186772074604247
Unique Load IPs: 12305
CPU 0 NUM of IPS identified critical: 37
CPU 0 Num of Load IPs stalling ROB: 0
Threshold modification factor: 0
Trouble in retire width: -nan
MaC = Marked as critical.
lt_50_percent_before_Mac: 9
gt_90_percent_before_Mac: 3
gt_75_percent_before_Mac: 7
gt_50_percent_before_Mac: 15
stall_proportion_bin_same_before_after: 0
stall_proportion_bin_lower_before_after: 0
stall_proportion_bin_upper_before_after: 0
average_stall_proportion_before: 0.0319958
average_stall_proportion_after: 0.0305726
Critical_IP_Detector_Accuracy_70: 0
Critical_IP_Detector_Accuracy_80: 0
Critical_IP_Detector_Accuracy_90: 0
Critical_IP_Detector_Coverage_70: 0
Critical_IP_Detector_Coverage_80: 0
Critical_IP_Detector_Coverage_90: 0
stat_90_percent_critical_ip_stalls_freq: 151355
stat_90_percent_non_critical_ip_stalls_freq: 18446744073709400261
AVERAGE_ROB_Occupancy_90_Percent_Critical_IP_Stalls: 30.2267
AVERAGE_ROB_Occupancy_90_Percent_Non_Critical_IP_Stalls: 7.72022e-12
Critical_IP_ROB_Stalls_Bucket_0: 10815
Non-critical_IP_ROB_Stalls_Bucket_0: 2437394
Critical_IP_ROB_Stalls_Bucket_1: 1355
Non-critical_IP_ROB_Stalls_Bucket_1: 696799
Critical_IP_ROB_Stalls_Bucket_2: 71
Non-critical_IP_ROB_Stalls_Bucket_2: 207711
Critical_IP_ROB_Stalls_Bucket_3: 47
Non-critical_IP_ROB_Stalls_Bucket_3: 45543
Critical_IP_ROB_Stalls_Bucket_4: 11
Non-critical_IP_ROB_Stalls_Bucket_4: 11441
Critical_IP_ROB_Stalls_Bucket_5: 5
Non-critical_IP_ROB_Stalls_Bucket_5: 5169
Critical_IP_ROB_Stalls_Bucket_6: 19
Non-critical_IP_ROB_Stalls_Bucket_6: 5714
0 => IPs accounting for >50 percent of stalls, 1 => 55, 2 => 60, 3 => 65 and so on till 90.
percent50: inf num IPs:  1
percent55: inf num IPs: 1
percent60: inf num IPs: 1
percent65: inf num IPs: 1
percent70: inf num IPs: 1
percent75: inf num IPs: 1
percent80: inf num IPs: 1
percent85: inf num IPs: 1
percent90: inf num IPs: 1
Critical_ROB_Stalls_Percent_0_Bucket_0: 149126
Non-critical_ROB_Stalls_Percent_0_Bucket_0: 2299083
Critical_ROB_Stalls_Percent_0_Bucket_1: 2205
Non-critical_ROB_Stalls_Percent_0_Bucket_1: 695949
Critical_ROB_Stalls_Percent_0_Bucket_2: 13
Non-critical_ROB_Stalls_Percent_0_Bucket_2: 207769
Critical_ROB_Stalls_Percent_0_Bucket_3: 11
Non-critical_ROB_Stalls_Percent_0_Bucket_3: 45579
Critical_ROB_Stalls_Percent_0_Bucket_4: 0
Non-critical_ROB_Stalls_Percent_0_Bucket_4: 11452
Critical_ROB_Stalls_Percent_0_Bucket_5: 0
Non-critical_ROB_Stalls_Percent_0_Bucket_5: 5174
Critical_ROB_Stalls_Percent_0_Bucket_6: 0
Non-critical_ROB_Stalls_Percent_0_Bucket_6: 5733
Critical_ROB_Stalls_Percent_1_Bucket_0: 149126
Non-critical_ROB_Stalls_Percent_1_Bucket_0: 2299083
Critical_ROB_Stalls_Percent_1_Bucket_1: 2205
Non-critical_ROB_Stalls_Percent_1_Bucket_1: 695949
Critical_ROB_Stalls_Percent_1_Bucket_2: 13
Non-critical_ROB_Stalls_Percent_1_Bucket_2: 207769
Critical_ROB_Stalls_Percent_1_Bucket_3: 11
Non-critical_ROB_Stalls_Percent_1_Bucket_3: 45579
Critical_ROB_Stalls_Percent_1_Bucket_4: 0
Non-critical_ROB_Stalls_Percent_1_Bucket_4: 11452
Critical_ROB_Stalls_Percent_1_Bucket_5: 0
Non-critical_ROB_Stalls_Percent_1_Bucket_5: 5174
Critical_ROB_Stalls_Percent_1_Bucket_6: 0
Non-critical_ROB_Stalls_Percent_1_Bucket_6: 5733
Critical_ROB_Stalls_Percent_2_Bucket_0: 149126
Non-critical_ROB_Stalls_Percent_2_Bucket_0: 2299083
Critical_ROB_Stalls_Percent_2_Bucket_1: 2205
Non-critical_ROB_Stalls_Percent_2_Bucket_1: 695949
Critical_ROB_Stalls_Percent_2_Bucket_2: 13
Non-critical_ROB_Stalls_Percent_2_Bucket_2: 207769
Critical_ROB_Stalls_Percent_2_Bucket_3: 11
Non-critical_ROB_Stalls_Percent_2_Bucket_3: 45579
Critical_ROB_Stalls_Percent_2_Bucket_4: 0
Non-critical_ROB_Stalls_Percent_2_Bucket_4: 11452
Critical_ROB_Stalls_Percent_2_Bucket_5: 0
Non-critical_ROB_Stalls_Percent_2_Bucket_5: 5174
Critical_ROB_Stalls_Percent_2_Bucket_6: 0
Non-critical_ROB_Stalls_Percent_2_Bucket_6: 5733
Critical_ROB_Stalls_Percent_3_Bucket_0: 149126
Non-critical_ROB_Stalls_Percent_3_Bucket_0: 2299083
Critical_ROB_Stalls_Percent_3_Bucket_1: 2205
Non-critical_ROB_Stalls_Percent_3_Bucket_1: 695949
Critical_ROB_Stalls_Percent_3_Bucket_2: 13
Non-critical_ROB_Stalls_Percent_3_Bucket_2: 207769
Critical_ROB_Stalls_Percent_3_Bucket_3: 11
Non-critical_ROB_Stalls_Percent_3_Bucket_3: 45579
Critical_ROB_Stalls_Percent_3_Bucket_4: 0
Non-critical_ROB_Stalls_Percent_3_Bucket_4: 11452
Critical_ROB_Stalls_Percent_3_Bucket_5: 0
Non-critical_ROB_Stalls_Percent_3_Bucket_5: 5174
Critical_ROB_Stalls_Percent_3_Bucket_6: 0
Non-critical_ROB_Stalls_Percent_3_Bucket_6: 5733
Critical_ROB_Stalls_Percent_4_Bucket_0: 149126
Non-critical_ROB_Stalls_Percent_4_Bucket_0: 2299083
Critical_ROB_Stalls_Percent_4_Bucket_1: 2205
Non-critical_ROB_Stalls_Percent_4_Bucket_1: 695949
Critical_ROB_Stalls_Percent_4_Bucket_2: 13
Non-critical_ROB_Stalls_Percent_4_Bucket_2: 207769
Critical_ROB_Stalls_Percent_4_Bucket_3: 11
Non-critical_ROB_Stalls_Percent_4_Bucket_3: 45579
Critical_ROB_Stalls_Percent_4_Bucket_4: 0
Non-critical_ROB_Stalls_Percent_4_Bucket_4: 11452
Critical_ROB_Stalls_Percent_4_Bucket_5: 0
Non-critical_ROB_Stalls_Percent_4_Bucket_5: 5174
Critical_ROB_Stalls_Percent_4_Bucket_6: 0
Non-critical_ROB_Stalls_Percent_4_Bucket_6: 5733
Critical_ROB_Stalls_Percent_5_Bucket_0: 149126
Non-critical_ROB_Stalls_Percent_5_Bucket_0: 2299083
Critical_ROB_Stalls_Percent_5_Bucket_1: 2205
Non-critical_ROB_Stalls_Percent_5_Bucket_1: 695949
Critical_ROB_Stalls_Percent_5_Bucket_2: 13
Non-critical_ROB_Stalls_Percent_5_Bucket_2: 207769
Critical_ROB_Stalls_Percent_5_Bucket_3: 11
Non-critical_ROB_Stalls_Percent_5_Bucket_3: 45579
Critical_ROB_Stalls_Percent_5_Bucket_4: 0
Non-critical_ROB_Stalls_Percent_5_Bucket_4: 11452
Critical_ROB_Stalls_Percent_5_Bucket_5: 0
Non-critical_ROB_Stalls_Percent_5_Bucket_5: 5174
Critical_ROB_Stalls_Percent_5_Bucket_6: 0
Non-critical_ROB_Stalls_Percent_5_Bucket_6: 5733
Critical_ROB_Stalls_Percent_6_Bucket_0: 149126
Non-critical_ROB_Stalls_Percent_6_Bucket_0: 2299083
Critical_ROB_Stalls_Percent_6_Bucket_1: 2205
Non-critical_ROB_Stalls_Percent_6_Bucket_1: 695949
Critical_ROB_Stalls_Percent_6_Bucket_2: 13
Non-critical_ROB_Stalls_Percent_6_Bucket_2: 207769
Critical_ROB_Stalls_Percent_6_Bucket_3: 11
Non-critical_ROB_Stalls_Percent_6_Bucket_3: 45579
Critical_ROB_Stalls_Percent_6_Bucket_4: 0
Non-critical_ROB_Stalls_Percent_6_Bucket_4: 11452
Critical_ROB_Stalls_Percent_6_Bucket_5: 0
Non-critical_ROB_Stalls_Percent_6_Bucket_5: 5174
Critical_ROB_Stalls_Percent_6_Bucket_6: 0
Non-critical_ROB_Stalls_Percent_6_Bucket_6: 5733
Critical_ROB_Stalls_Percent_7_Bucket_0: 149126
Non-critical_ROB_Stalls_Percent_7_Bucket_0: 2299083
Critical_ROB_Stalls_Percent_7_Bucket_1: 2205
Non-critical_ROB_Stalls_Percent_7_Bucket_1: 695949
Critical_ROB_Stalls_Percent_7_Bucket_2: 13
Non-critical_ROB_Stalls_Percent_7_Bucket_2: 207769
Critical_ROB_Stalls_Percent_7_Bucket_3: 11
Non-critical_ROB_Stalls_Percent_7_Bucket_3: 45579
Critical_ROB_Stalls_Percent_7_Bucket_4: 0
Non-critical_ROB_Stalls_Percent_7_Bucket_4: 11452
Critical_ROB_Stalls_Percent_7_Bucket_5: 0
Non-critical_ROB_Stalls_Percent_7_Bucket_5: 5174
Critical_ROB_Stalls_Percent_7_Bucket_6: 0
Non-critical_ROB_Stalls_Percent_7_Bucket_6: 5733
Critical_ROB_Stalls_Percent_8_Bucket_0: 149126
Non-critical_ROB_Stalls_Percent_8_Bucket_0: 2299083
Critical_ROB_Stalls_Percent_8_Bucket_1: 2205
Non-critical_ROB_Stalls_Percent_8_Bucket_1: 695949
Critical_ROB_Stalls_Percent_8_Bucket_2: 13
Non-critical_ROB_Stalls_Percent_8_Bucket_2: 207769
Critical_ROB_Stalls_Percent_8_Bucket_3: 11
Non-critical_ROB_Stalls_Percent_8_Bucket_3: 45579
Critical_ROB_Stalls_Percent_8_Bucket_4: 0
Non-critical_ROB_Stalls_Percent_8_Bucket_4: 11452
Critical_ROB_Stalls_Percent_8_Bucket_5: 0
Non-critical_ROB_Stalls_Percent_8_Bucket_5: 5174
Critical_ROB_Stalls_Percent_8_Bucket_6: 0
Non-critical_ROB_Stalls_Percent_8_Bucket_6: 5733
Average ROB occupancy Load Stall Begin: 34.4621
Average ROB occupancy Load Stall End: 42.9526
Min ROB occupancy Load Stall Begin: 1
Max ROB occupancy Load Stall Begin: 352
Min ROB occupancy Load Stall End: 1
Max ROB occupancy Load Stall End: 352
Average ROB occupancy Critical Load Stall Begin: 25.0419
Average ROB occupancy Critical Load Stall End: 34.0198
Min ROB occupancy Critical Load Stall Begin: 2
Max ROB occupancy Critical Load Stall Begin: 351
Min ROB occupancy Critical Load Stall End: 2
Max ROB occupancy Critical Load Stall End: 352
 ROB Load Stall Begin Bucket Count 0: 2699178
 ROB Load Stall End Bucket Count 0: 2448209
 ROB Critical Load Stall Begin Bucket Count 0: 4305
 ROB Critical Load Stall End Bucket Count 0: 4093
 ROB Load Stall Begin Bucket Count 1: 521769
 ROB Load Stall End Bucket Count 1: 698154
 ROB Critical Load Stall Begin Bucket Count 1: 182
 ROB Critical Load Stall End Bucket Count 1: 388
 ROB Load Stall Begin Bucket Count 2: 147300
 ROB Load Stall End Bucket Count 2: 207782
 ROB Critical Load Stall Begin Bucket Count 2: 23
 ROB Critical Load Stall End Bucket Count 2: 25
 ROB Load Stall Begin Bucket Count 3: 35170
 ROB Load Stall End Bucket Count 3: 45590
 ROB Critical Load Stall Begin Bucket Count 3: 12
 ROB Critical Load Stall End Bucket Count 3: 15
 ROB Load Stall Begin Bucket Count 4: 9139
 ROB Load Stall End Bucket Count 4: 11452
 ROB Critical Load Stall Begin Bucket Count 4: 5
 ROB Critical Load Stall End Bucket Count 4: 6
 ROB Load Stall Begin Bucket Count 5: 4842
 ROB Load Stall End Bucket Count 5: 5174
 ROB Critical Load Stall Begin Bucket Count 5: 0
 ROB Critical Load Stall End Bucket Count 5: 0
 ROB Load Stall Begin Bucket Count 6: 4696
 ROB Load Stall End Bucket Count 6: 5733
 ROB Critical Load Stall Begin Bucket Count 6: 10
 ROB Critical Load Stall End Bucket Count 6: 10
PIST Tag Read Accesses: 0
PIST Read Accesses: 0
PIST Tag Write Accesses: 0
PIST Write Accesses: 0
Criticality detector called times: 0
Max global_stall_cycles_count: 0
Threshold Modified: 0 times, factor: 0
Sturdy critical IP cache stats: 
 Unused entries: 0
CIC Tag Read Accesses: 0
CIC Read Accesses: 0
CIC Tag Write Accesses: 0
CIC Write Accesses: 0
Wobbly critical IP cache stats: 
 Unused entries: 0
CIC Tag Read Accesses: 145736771
CIC Read Accesses: 0
CIC Tag Write Accesses: 162878
CIC Write Accesses: 0
ITLB TOTAL     ACCESS:   10481680  HIT:    9738794  MISS:     742886  HIT %:    92.9125  MISS %:    7.08747   MPKI: 14.8577
ITLB LOAD TRANSLATION ACCESS:    8338765  HIT:    8286049  MISS:      52716  HIT %:    99.3678  MISS %:    0.63218   MPKI: 1.05432
ITLB TRANSLATION FROM L1D PREFETCHER ACCESS:    2142915  HIT:    1452745  MISS:     690170  HIT %:    67.7929  MISS %:    32.2071   MPKI: 13.8034
ITLB PREFETCH  REQUESTED:          0  ISSUED:          0  USEFUL:     555655  USELESS:     134515
ITLB USEFUL LOAD PREFETCHES:     555655 PREFETCH ISSUED TO LOWER LEVEL:          0  ACCURACY: inf
ITLB TIMELY PREFETCHES:     555655 LATE PREFETCHES: 597 DROPPED PREFETCHES: 5331
ITLB PREFETCHES SAME FILL-ORIGIN LEVEL: 0 DIFFERENT FILL-ORIGIN LEVEL: 0
ITLB AVERAGE MISS LATENCY: 39093 cycles
ITLB RQ	ACCESS:   15853907	FORWARD:          0	MERGED:    5325694	TO_CACHE:   10528213

DTLB TOTAL     ACCESS:   11229458  HIT:   10704171  MISS:     525287  HIT %:    95.3222  MISS %:    4.67776   MPKI: 10.5057
DTLB LOAD TRANSLATION ACCESS:   11229458  HIT:   10704171  MISS:     525287  HIT %:    95.3222  MISS %:    4.67776   MPKI: 10.5057
DTLB PREFETCH  REQUESTED:          0  ISSUED:          0  USEFUL:          0  USELESS:          0
DTLB USEFUL LOAD PREFETCHES:          0 PREFETCH ISSUED TO LOWER LEVEL:          0  ACCURACY: -nan
DTLB TIMELY PREFETCHES:          0 LATE PREFETCHES: 0 DROPPED PREFETCHES: 0
DTLB PREFETCHES SAME FILL-ORIGIN LEVEL: 0 DIFFERENT FILL-ORIGIN LEVEL: 0
DTLB AVERAGE MISS LATENCY: 9.36313 cycles
DTLB RQ	ACCESS:   14751845	FORWARD:          0	MERGED:    3494232	TO_CACHE:   11257613

STLB TOTAL     ACCESS:    1304360  HIT:    1295278  MISS:       9082  HIT %:    99.3037  MISS %:    0.69628   MPKI: 0.18164
STLB LOAD TRANSLATION ACCESS:     577406  HIT:     572253  MISS:       5153  HIT %:    99.1076  MISS %:    0.89244   MPKI: 0.10306
STLB TRANSLATION FROM L1D PREFETCHER ACCESS:     726954  HIT:     723025  MISS:       3929  HIT %:    99.4595  MISS %:   0.540474   MPKI: 0.07858
STLB PREFETCH  REQUESTED:          0  ISSUED:          0  USEFUL:       2634  USELESS:       1299
STLB USEFUL LOAD PREFETCHES:       2634 PREFETCH ISSUED TO LOWER LEVEL:          0  ACCURACY: inf
STLB TIMELY PREFETCHES:       2634 LATE PREFETCHES: 0 DROPPED PREFETCHES: 5331
STLB PREFETCHES SAME FILL-ORIGIN LEVEL: 0 DIFFERENT FILL-ORIGIN LEVEL: 0
STLB AVERAGE MISS LATENCY: 29.0083 cycles
STLB RQ	ACCESS:    1381379	FORWARD:          0	MERGED:      71688	TO_CACHE:    1309691

STLB Hit, L1D data hit: 0
STLB Hit, L2C data hit: 0
STLB Hit, LLC data hit: 0
STLB Hit, LLC data miss: 0
STLB STLB hints to L2: 0
L1D TOTAL     ACCESS:   14330473  HIT:   12859286  MISS:    1471187  HIT %:    89.7339  MISS %:    10.2661   MPKI: 29.4237
L1D LOAD      ACCESS:    7960173  HIT:    6863045  MISS:    1097128  HIT %:    86.2173  MISS %:    13.7827   MPKI: 21.9426
L1D RFO       ACCESS:    6270665  HIT:    5962597  MISS:     308068  HIT %:    95.0872  MISS %:    4.91284   MPKI: 6.16136
L1D PREFETCH  ACCESS:      99635  HIT:      33644  MISS:      65991  HIT %:    33.7673  MISS %:    66.2327   MPKI: 1.31982
L1D PREFETCH  REQUESTED:     215760  ISSUED:     215751  USEFUL:      57013  USELESS:       9126
L1D USEFUL LOAD PREFETCHES:      57013 PREFETCH ISSUED TO LOWER LEVEL:      72440  ACCURACY: 78.7038
L1D TIMELY PREFETCHES:      57013 LATE PREFETCHES: 6449 DROPPED PREFETCHES: 0
L1D PREFETCHES SAME FILL-ORIGIN LEVEL: 72440 DIFFERENT FILL-ORIGIN LEVEL: 0
L1D AVERAGE MISS LATENCY: 342655 cycles
L1D RQ	ACCESS:   11309024	FORWARD:          0	MERGED:    3164802	TO_CACHE:    7996406
L1D WQ	ACCESS:    6823740	FORWARD:     147817	MERGED:      68301	TO_CACHE:    6755439
L1D PQ	ACCESS:     107876	FORWARD:          0	MERGED:          0	TO_CACHE:     107875

L1D UNIQUE REGIONS ACCESSED: 0
L1D REGIONS CONFLICTS: 0
L1D Cross Page Prefetch Requests: 0
L1D Same Page Prefetch Requests: 804882
L1D ROI Sum of L1D PQ occupancy: 1453015
L1D PREFETCHES PUSHED FROM L2C: 0
L1I TOTAL     ACCESS:   15767510  HIT:   11489747  MISS:    4277763  HIT %:    72.8698  MISS %:    27.1302   MPKI: 85.5553
L1I LOAD      ACCESS:    9807626  HIT:    9703988  MISS:     103638  HIT %:    98.9433  MISS %:    1.05671   MPKI: 2.07276
L1I PREFETCH  ACCESS:    5959884  HIT:    1785759  MISS:    4174125  HIT %:     29.963  MISS %:     70.037   MPKI: 83.4825
L1I PREFETCH  REQUESTED:    6180838  ISSUED:    6171487  USEFUL:    2962215  USELESS:    1211901
L1I USEFUL LOAD PREFETCHES:    2962215 PREFETCH ISSUED TO LOWER LEVEL:    4187612  ACCURACY: 70.7376
L1I TIMELY PREFETCHES:    2962215 LATE PREFETCHES: 13487 DROPPED PREFETCHES: 11797
L1I PREFETCHES SAME FILL-ORIGIN LEVEL: 4187612 DIFFERENT FILL-ORIGIN LEVEL: 0
L1I AVERAGE MISS LATENCY: 165084 cycles
L1I RQ	ACCESS:   13562675	FORWARD:          0	MERGED:    3743349	TO_CACHE:    9819326
L1I PQ	ACCESS:    6171487	FORWARD:          0	MERGED:     136906	TO_CACHE:    6034581

BTB TOTAL     ACCESS:    6033516  HIT:    4123215  MISS:    1910301  HIT %:    68.3385  MISS %:    31.6615   MPKI: 38.206
BTB BRANCH_DIRECT_JUMP	ACCESS:     490939  HIT:     331427  MISS:     159512
BTB BRANCH_INDIRECT	ACCESS:     175853  HIT:     140870  MISS:      34983
BTB BRANCH_CONDITIONAL	ACCESS:    2983032  HIT:    2460633  MISS:     522399
BTB BRANCH_DIRECT_CALL	ACCESS:    1002064  HIT:     623208  MISS:     378856
BTB BRANCH_INDIRECT_CALL	ACCESS:     189782  HIT:     117779  MISS:      72003
BTB BRANCH_RETURN	ACCESS:    1191846  HIT:     449298  MISS:     742548
BTB BRANCH_OTHER ACCESS:          0  HIT:          0  MISS:          0

L2C TOTAL     ACCESS:    6358746  HIT:    5883808  MISS:     474938  HIT %:    92.5309  MISS %:    7.46905   MPKI: 9.49876
L2C LOAD      ACCESS:    1180720  HIT:    1036673  MISS:     144047  HIT %:    87.8001  MISS %:    12.1999   MPKI: 2.88094
L2C DATA LOAD MPKI: 2.60876
L2C INSTRUCTION LOAD MPKI: 0.27218
L2C RFO       ACCESS:     308068  HIT:     279774  MISS:      28294  HIT %:    90.8157  MISS %:    9.18434   MPKI: 0.56588
L2C PREFETCH  ACCESS:    4260052  HIT:    3973091  MISS:     286961  HIT %:    93.2639  MISS %:    6.73609   MPKI: 5.73922
L2C DATA PREFETCH MPKI: 0.21298
L2C INSTRUCTION PREFETCH MPKI: 5.52624
L2C WRITEBACK ACCESS:     594965  HIT:     581551  MISS:      13414  HIT %:    97.7454  MISS %:    2.25459   MPKI: 0.26828
L2C LOAD TRANSLATION ACCESS:       5355  HIT:       3656  MISS:       1699  HIT %:    68.2726  MISS %:    31.7274   MPKI: 0.03398
L2C TRANSLATION FROM L1D PREFETCHER ACCESS:       9586  HIT:       9063  MISS:        523  HIT %:    94.5441  MISS %:    5.45587   MPKI: 0.01046
L2C PREFETCH  REQUESTED:          0  ISSUED:          0  USEFUL:       3436  USELESS:     285313
L2C USEFUL LOAD PREFETCHES:       3436 PREFETCH ISSUED TO LOWER LEVEL:     286961  ACCURACY: 1.19738
L2C TIMELY PREFETCHES:       3436 LATE PREFETCHES: 0 DROPPED PREFETCHES: 0
L2C PREFETCHES SAME FILL-ORIGIN LEVEL: 0 DIFFERENT FILL-ORIGIN LEVEL: 0
L2C AVERAGE MISS LATENCY: 31.9675 cycles
L2C RQ	ACCESS:    1503839	FORWARD:          0	MERGED:          0	TO_CACHE:    1503729
L2C WQ	ACCESS:     594965	FORWARD:        110	MERGED:          0	TO_CACHE:     594965
L2C PQ	ACCESS:    4260052	FORWARD:          0	MERGED:          0	TO_CACHE:    4260052

L2C Instructions Evicting Data 107812
L2C Translations Evicting Data 1167
L2C Data Evicting Data 69386
L2C Instructions Evicting Instructions 181062
L2C Translations Evicting Instructions 1012
L2C Data Evicting Instructions 98898
L2C Instructions Evicting Translations 1047
L2C Translations Evicting Translations 43
L2C Data Evicting Translations 1097
L2C Dense regions hint from L2: 0
PSCL5 TOTAL     ACCESS:      14413  HIT:      14413  MISS:          0  HIT %:        100  MISS %:          0   MPKI: 0
PSCL5 LOAD TRANSLATION ACCESS:       5153  HIT:       5153  MISS:          0  HIT %:        100  MISS %:          0   MPKI: 0
PSCL5 TRANSLATION FROM L1D PREFETCHER ACCESS:       9260  HIT:       9260  MISS:          0  HIT %:        100  MISS %:          0   MPKI: 0
PSCL5 PREFETCH  REQUESTED:          0  ISSUED:          0  USEFUL:          0  USELESS:          0
PSCL5 USEFUL LOAD PREFETCHES:          0 PREFETCH ISSUED TO LOWER LEVEL:          0  ACCURACY: -nan
PSCL5 TIMELY PREFETCHES:          0 LATE PREFETCHES: 0 DROPPED PREFETCHES: 0
PSCL5 PREFETCHES SAME FILL-ORIGIN LEVEL: 0 DIFFERENT FILL-ORIGIN LEVEL: 0

PSCL4 TOTAL     ACCESS:       7820  HIT:       7812  MISS:          8  HIT %:    99.8977  MISS %:   0.102302   MPKI: 0.00016
PSCL4 LOAD TRANSLATION ACCESS:       2886  HIT:       2878  MISS:          8  HIT %:    99.7228  MISS %:     0.2772   MPKI: 0.00016
PSCL4 TRANSLATION FROM L1D PREFETCHER ACCESS:       4934  HIT:       4934  MISS:          0  HIT %:        100  MISS %:          0   MPKI: 0
PSCL4 PREFETCH  REQUESTED:          0  ISSUED:          0  USEFUL:          0  USELESS:          0
PSCL4 USEFUL LOAD PREFETCHES:          0 PREFETCH ISSUED TO LOWER LEVEL:          0  ACCURACY: -nan
PSCL4 TIMELY PREFETCHES:          0 LATE PREFETCHES: 0 DROPPED PREFETCHES: 0
PSCL4 PREFETCHES SAME FILL-ORIGIN LEVEL: 0 DIFFERENT FILL-ORIGIN LEVEL: 0

PSCL3 TOTAL     ACCESS:      14077  HIT:      14062  MISS:         15  HIT %:    99.8934  MISS %:   0.106557   MPKI: 0.0003
PSCL3 LOAD TRANSLATION ACCESS:       5026  HIT:       5011  MISS:         15  HIT %:    99.7016  MISS %:   0.298448   MPKI: 0.0003
PSCL3 TRANSLATION FROM L1D PREFETCHER ACCESS:       9051  HIT:       9051  MISS:          0  HIT %:        100  MISS %:          0   MPKI: 0
PSCL3 PREFETCH  REQUESTED:          0  ISSUED:          0  USEFUL:          0  USELESS:          0
PSCL3 USEFUL LOAD PREFETCHES:          0 PREFETCH ISSUED TO LOWER LEVEL:          0  ACCURACY: -nan
PSCL3 TIMELY PREFETCHES:          0 LATE PREFETCHES: 0 DROPPED PREFETCHES: 0
PSCL3 PREFETCHES SAME FILL-ORIGIN LEVEL: 0 DIFFERENT FILL-ORIGIN LEVEL: 0

PSCL2 TOTAL     ACCESS:      14219  HIT:      13944  MISS:        275  HIT %:     98.066  MISS %:    1.93403   MPKI: 0.0055
PSCL2 LOAD TRANSLATION ACCESS:       5241  HIT:       4966  MISS:        275  HIT %:    94.7529  MISS %:    5.24709   MPKI: 0.0055
PSCL2 TRANSLATION FROM L1D PREFETCHER ACCESS:       8978  HIT:       8978  MISS:          0  HIT %:        100  MISS %:          0   MPKI: 0
PSCL2 PREFETCH  REQUESTED:          0  ISSUED:          0  USEFUL:          0  USELESS:          0
PSCL2 USEFUL LOAD PREFETCHES:          0 PREFETCH ISSUED TO LOWER LEVEL:          0  ACCURACY: -nan
PSCL2 TIMELY PREFETCHES:          0 LATE PREFETCHES: 0 DROPPED PREFETCHES: 0
PSCL2 PREFETCHES SAME FILL-ORIGIN LEVEL: 0 DIFFERENT FILL-ORIGIN LEVEL: 0

LLC TOTAL     ACCESS:     504600  HIT:     494642  MISS:       9958  HIT %:    98.0266  MISS %:    1.97344   MPKI: 0.19916
LLC LOAD      ACCESS:     144047  HIT:     136400  MISS:       7647  HIT %:    94.6913  MISS %:    5.30868   MPKI: 0.15294
LLC RFO       ACCESS:      28294  HIT:      26408  MISS:       1886  HIT %:    93.3343  MISS %:    6.66572   MPKI: 0.03772
LLC PREFETCH  ACCESS:     286961  HIT:     286651  MISS:        310  HIT %:     99.892  MISS %:   0.108029   MPKI: 0.0062
LLC WRITEBACK ACCESS:      43076  HIT:      42988  MISS:         88  HIT %:    99.7957  MISS %:    0.20429   MPKI: 0.00176
LLC LOAD TRANSLATION ACCESS:       1699  HIT:       1673  MISS:         26  HIT %:    98.4697  MISS %:    1.53031   MPKI: 0.00052
LLC TRANSLATION FROM L1D PREFETCHER ACCESS:        523  HIT:        522  MISS:          1  HIT %:    99.8088  MISS %:   0.191205   MPKI: 2e-05
LLC PREFETCH  REQUESTED:          0  ISSUED:          0  USEFUL:       2724  USELESS:       3631
LLC USEFUL LOAD PREFETCHES:       2724 PREFETCH ISSUED TO LOWER LEVEL:        310  ACCURACY: 878.71
LLC TIMELY PREFETCHES:       2724 LATE PREFETCHES: 0 DROPPED PREFETCHES: 0
LLC PREFETCHES SAME FILL-ORIGIN LEVEL: 0 DIFFERENT FILL-ORIGIN LEVEL: 0
LLC AVERAGE MISS LATENCY: 133.921 cycles
LLC RQ	ACCESS:     174563	FORWARD:          0	MERGED:          0	TO_CACHE:     174563
LLC WQ	ACCESS:      43076	FORWARD:          0	MERGED:          0	TO_CACHE:      43076
LLC PQ	ACCESS:     286961	FORWARD:          0	MERGED:          0	TO_CACHE:     286961

LLC Dense regions hint to LLC: 0

RAW hits: 1080747
Loads Generated: 12389772
Loads sent to L1D: 11309024
Stores Generated: 6823741
Stores sent to L1D: 6823740
Major fault: 0 Minor fault: 2136
Allocated PAGES: 2136
I-Shadow cache 408 bytes
Touched + WorthPF tables 6144 bytes 
MMA filter 174 bytes 
FNL filter 272 bytes 
TOTAL PREFETCHER STORAGE SIZE: 25174 bytes
CPU 0 L1I next line prefetcher final stats

stream: 
stream:times selected: 589616
stream:pref_filled: 323054
stream:pref_useful: 171936
stream:pref_late: 11019
stream:misses: 5942
stream:misses_by_poll: 0

CS: 
CS:times selected: 48355
CS:pref_filled: 32797
CS:pref_useful: 31737
CS:pref_late: 240
CS:misses: 6655
CS:misses_by_poll: 0

CPLX: 
CPLX:times selected: 540601
CPLX:pref_filled: 155789
CPLX:pref_useful: 120701
CPLX:pref_late: 847
CPLX:misses: 58011
CPLX:misses_by_poll: 0

NL_L1: 
NL:times selected: 535
NL:pref_filled: 36
NL:pref_useful: 14
NL:pref_late: 0
NL:misses: 28
NL:misses_by_poll: 0

total selections: 1179107
total_filled: 65991
total_useful: 57013
total_late: 16698
total_polluted: 0
total_misses_after_warmup: 3279
conflicts: 199
Degree Incremented Times: 31163
Degree Decremented Times: 1

L1 IP Table Write Accesses: 61356
L1 IP Table Read Accesses: 61157
L1 RST Write Accesses: 46870
L1 RST Read Accesses: 93740
L1 CSPT Write Accesses: 46870
L1 CSPT Read Accesses: 115687
L1 RR Filter Tag Write Accesses: 107885
L1 RR Filter Tag Read Accesses: 7230060
L1 IP Table Tag Write Accesses: 62353
L1 IP Table Tag Read Accesses: 62353
L1 RST Tag Write Accesses: 0
L1 RST Tag Read Accesses: 463347
L1 RR Filter Write Accesses: 0
L1 RR Filter Read Accesses: 267870
test: 52106

DRAM Statistics
 CHANNEL 0
 RQ ROW_BUFFER_HIT:       3787  ROW_BUFFER_MISS:       6083
 DBUS_CONGESTED:          2
 WQ ROW_BUFFER_HIT:        180  ROW_BUFFER_MISS:       1310  FULL:          0

 AVG_CONGESTED_CYCLE: 5
 All warmup complete: 2
Channel 0 Bank busy for read cycles: 0
Channel 0 Bank busy for write cycles: 0
Channel 0
Rank 0
0banks busy for read cycles: 78984174
0banks busy for write cycles: 789
1banks busy for read cycles: 813578
1banks busy for write cycles: 176670
2banks busy for read cycles: 46130
2banks busy for write cycles: 58591
3banks busy for read cycles: 21050
3banks busy for write cycles: 32316
4banks busy for read cycles: 4384
4banks busy for write cycles: 18281
5banks busy for read cycles: 3047
5banks busy for write cycles: 9697
6banks busy for read cycles: 3071
6banks busy for write cycles: 5572
7banks busy for read cycles: 3496
7banks busy for write cycles: 1777
8banks busy for read cycles: 7145
8banks busy for write cycles: 0

CPU 0 Branch Prediction Accuracy: 99.8445% MPKI: 0.29148 Average ROB Occupancy at Mispredict: 79.9603
Branch types
NOT_BRANCH: 40627788 81.2556%
BRANCH_DIRECT_JUMP: 490939 0.981878%
BRANCH_INDIRECT: 175853 0.351706%
BRANCH_CONDITIONAL: 6321387 12.6428%
BRANCH_DIRECT_CALL: 1002064 2.00413%
BRANCH_INDIRECT_CALL: 189782 0.379564%
BRANCH_RETURN: 1191846 2.38369%
BRANCH_OTHER: 0 0%

DRAM PAGES: 1048576
Allocated PAGES: 2136
