
*** ChampSim Multicore Out-of-Order Simulator ***

Warmup Instructions: 50000000
Simulation Instructions: 50000000
Number of CPUs: 1
LLC sets: 2048
LLC ways: 16
Off-chip DRAM Size: 4096 MB Channels: 1 Width: 64-bit Data Rate: 6400 MT/s
CPU 0 runs ../IPC-traces//server_023.champsimtrace.xz
.xz
BTB has LRU replacement policy
ITLB has LRU replacement policy
DTLB has LRU replacement policy
STLB has LRU replacement policy
CPU 0 L1I next line prefetcher
L1I has LRU replacement policy
IP Table Entries: 64
L1D has LRU replacement policy
Initialize SRRIP state for L2C
Initialize DRRIP state for LLC
Heartbeat CPU 0 instructions: 10000001 cycles: 2873579 heartbeat IPC: 3.47998 cumulative IPC: 3.47998 (Simulation time: 0 hr 2 min 25 sec) 
Heartbeat CPU 0 instructions: 20000000 cycles: 5743567 heartbeat IPC: 3.48433 cumulative IPC: 3.48216 (Simulation time: 0 hr 4 min 39 sec) 
Heartbeat CPU 0 instructions: 30000002 cycles: 8609803 heartbeat IPC: 3.4889 cumulative IPC: 3.4844 (Simulation time: 0 hr 6 min 55 sec) 
Heartbeat CPU 0 instructions: 40000002 cycles: 11478715 heartbeat IPC: 3.48564 cumulative IPC: 3.48471 (Simulation time: 0 hr 9 min 12 sec) 
Heartbeat CPU 0 instructions: 50000001 cycles: 14348421 heartbeat IPC: 3.48468 cumulative IPC: 3.4847 (Simulation time: 0 hr 11 min 28 sec) 

Warmup complete CPU 0 instructions: 50000001 cycles: 14348421 (Simulation time: 0 hr 11 min 28 sec) 

Heartbeat CPU 0 instructions: 60000000 cycles: 30077384 heartbeat IPC: 0.63577 cumulative IPC: 0.63577 (Simulation time: 0 hr 14 min 4 sec) 
Heartbeat CPU 0 instructions: 70000000 cycles: 46045764 heartbeat IPC: 0.626238 cumulative IPC: 0.630968 (Simulation time: 0 hr 16 min 38 sec) 
Heartbeat CPU 0 instructions: 80000000 cycles: 61778498 heartbeat IPC: 0.635617 cumulative IPC: 0.63251 (Simulation time: 0 hr 19 min 16 sec) 
Heartbeat CPU 0 instructions: 90000000 cycles: 77048062 heartbeat IPC: 0.654898 cumulative IPC: 0.637962 (Simulation time: 0 hr 21 min 48 sec) 
Heartbeat CPU 0 instructions: 100000002 cycles: 92795160 heartbeat IPC: 0.635038 cumulative IPC: 0.637375 (Simulation time: 0 hr 24 min 36 sec) 
Finished CPU 0 instructions: 50000001 cycles: 78446739 cumulative IPC: 0.637375 (Simulation time: 0 hr 24 min 36 sec) 

ChampSim completed all CPUs

Region of Interest Statistics

CPU 0 cumulative IPC: 0.637375 instructions: 50000001 cycles: 78446739

CPU 0 Average Load ROB stall cycles: 1.98082e+07
CPU 0 Fraction of times ROB stalled by Loads: 36.9009
CPU 0 Percentage of Load stall cycles in Total stall cycles: 2.81449e+08
Issued all: 27964211
Issued LT all: 22049950
rob_not_full_when_issued_lt_all: 21613798
Issued LT one: 17219182
rob_not_full_when_issued_lt_one: 16836266
FVP critical_dynamic_instances_0: 2199764
FVP unique_critical_ips_0: 6868
 Total stall cycles: 65030558
 Total load stall cycles: 183027951684980
Unique Load IPs: 16358
CPU 0 NUM of IPS identified critical: 0
CPU 0 Num of Load IPs stalling ROB: 0
Threshold modification factor: 0
Trouble in retire width: -nan
MaC = Marked as critical.
lt_50_percent_before_Mac: 0
gt_90_percent_before_Mac: 0
gt_75_percent_before_Mac: 0
gt_50_percent_before_Mac: 0
stall_proportion_bin_same_before_after: 0
stall_proportion_bin_lower_before_after: 0
stall_proportion_bin_upper_before_after: 0
average_stall_proportion_before: -nan
average_stall_proportion_after: -nan
Critical IP stalls, total frequency: 0
Non-critical IP stalls, total frequency: 0
Total Freq all stalling IPs: 0
Critical_IP_Detector_Accuracy_70: 0.000145603
Critical_IP_Detector_Accuracy_80: 0.000145603
Critical_IP_Detector_Accuracy_90: 0.000145603
Critical_IP_Detector_Coverage_70: 1
Critical_IP_Detector_Coverage_80: 1
Critical_IP_Detector_Coverage_90: 1
stat_90_percent_critical_ip_stalls_freq: 121132
stat_90_percent_non_critical_ip_stalls_freq: 18446744073709430484
AVERAGE_ROB_Occupancy_90_Percent_Critical_IP_Stalls: 17.6483
AVERAGE_ROB_Occupancy_90_Percent_Non_Critical_IP_Stalls: 8.44416e-12
Critical_IP_ROB_Stalls_Bucket_0: 0
Non-critical_IP_ROB_Stalls_Bucket_0: 2363023
Critical_IP_ROB_Stalls_Bucket_1: 0
Non-critical_IP_ROB_Stalls_Bucket_1: 699134
Critical_IP_ROB_Stalls_Bucket_2: 0
Non-critical_IP_ROB_Stalls_Bucket_2: 240508
Critical_IP_ROB_Stalls_Bucket_3: 0
Non-critical_IP_ROB_Stalls_Bucket_3: 56175
Critical_IP_ROB_Stalls_Bucket_4: 0
Non-critical_IP_ROB_Stalls_Bucket_4: 19878
Critical_IP_ROB_Stalls_Bucket_5: 0
Non-critical_IP_ROB_Stalls_Bucket_5: 9314
Critical_IP_ROB_Stalls_Bucket_6: 0
Non-critical_IP_ROB_Stalls_Bucket_6: 21623
0 => IPs accounting for >50 percent of stalls, 1 => 55, 2 => 60, 3 => 65 and so on till 90.
percent50: inf num IPs:  1
percent55: inf num IPs: 1
percent60: inf num IPs: 1
percent65: inf num IPs: 1
percent70: inf num IPs: 1
percent75: inf num IPs: 1
percent80: inf num IPs: 1
percent85: inf num IPs: 1
percent90: inf num IPs: 1
Critical_ROB_Stalls_Percent_0_Bucket_0: 120558
Non-critical_ROB_Stalls_Percent_0_Bucket_0: 2242465
Critical_ROB_Stalls_Percent_0_Bucket_1: 475
Non-critical_ROB_Stalls_Percent_0_Bucket_1: 698659
Critical_ROB_Stalls_Percent_0_Bucket_2: 71
Non-critical_ROB_Stalls_Percent_0_Bucket_2: 240437
Critical_ROB_Stalls_Percent_0_Bucket_3: 2
Non-critical_ROB_Stalls_Percent_0_Bucket_3: 56173
Critical_ROB_Stalls_Percent_0_Bucket_4: 4
Non-critical_ROB_Stalls_Percent_0_Bucket_4: 19874
Critical_ROB_Stalls_Percent_0_Bucket_5: 4
Non-critical_ROB_Stalls_Percent_0_Bucket_5: 9310
Critical_ROB_Stalls_Percent_0_Bucket_6: 18
Non-critical_ROB_Stalls_Percent_0_Bucket_6: 21605
Critical_ROB_Stalls_Percent_1_Bucket_0: 120558
Non-critical_ROB_Stalls_Percent_1_Bucket_0: 2242465
Critical_ROB_Stalls_Percent_1_Bucket_1: 475
Non-critical_ROB_Stalls_Percent_1_Bucket_1: 698659
Critical_ROB_Stalls_Percent_1_Bucket_2: 71
Non-critical_ROB_Stalls_Percent_1_Bucket_2: 240437
Critical_ROB_Stalls_Percent_1_Bucket_3: 2
Non-critical_ROB_Stalls_Percent_1_Bucket_3: 56173
Critical_ROB_Stalls_Percent_1_Bucket_4: 4
Non-critical_ROB_Stalls_Percent_1_Bucket_4: 19874
Critical_ROB_Stalls_Percent_1_Bucket_5: 4
Non-critical_ROB_Stalls_Percent_1_Bucket_5: 9310
Critical_ROB_Stalls_Percent_1_Bucket_6: 18
Non-critical_ROB_Stalls_Percent_1_Bucket_6: 21605
Critical_ROB_Stalls_Percent_2_Bucket_0: 120558
Non-critical_ROB_Stalls_Percent_2_Bucket_0: 2242465
Critical_ROB_Stalls_Percent_2_Bucket_1: 475
Non-critical_ROB_Stalls_Percent_2_Bucket_1: 698659
Critical_ROB_Stalls_Percent_2_Bucket_2: 71
Non-critical_ROB_Stalls_Percent_2_Bucket_2: 240437
Critical_ROB_Stalls_Percent_2_Bucket_3: 2
Non-critical_ROB_Stalls_Percent_2_Bucket_3: 56173
Critical_ROB_Stalls_Percent_2_Bucket_4: 4
Non-critical_ROB_Stalls_Percent_2_Bucket_4: 19874
Critical_ROB_Stalls_Percent_2_Bucket_5: 4
Non-critical_ROB_Stalls_Percent_2_Bucket_5: 9310
Critical_ROB_Stalls_Percent_2_Bucket_6: 18
Non-critical_ROB_Stalls_Percent_2_Bucket_6: 21605
Critical_ROB_Stalls_Percent_3_Bucket_0: 120558
Non-critical_ROB_Stalls_Percent_3_Bucket_0: 2242465
Critical_ROB_Stalls_Percent_3_Bucket_1: 475
Non-critical_ROB_Stalls_Percent_3_Bucket_1: 698659
Critical_ROB_Stalls_Percent_3_Bucket_2: 71
Non-critical_ROB_Stalls_Percent_3_Bucket_2: 240437
Critical_ROB_Stalls_Percent_3_Bucket_3: 2
Non-critical_ROB_Stalls_Percent_3_Bucket_3: 56173
Critical_ROB_Stalls_Percent_3_Bucket_4: 4
Non-critical_ROB_Stalls_Percent_3_Bucket_4: 19874
Critical_ROB_Stalls_Percent_3_Bucket_5: 4
Non-critical_ROB_Stalls_Percent_3_Bucket_5: 9310
Critical_ROB_Stalls_Percent_3_Bucket_6: 18
Non-critical_ROB_Stalls_Percent_3_Bucket_6: 21605
Critical_ROB_Stalls_Percent_4_Bucket_0: 120558
Non-critical_ROB_Stalls_Percent_4_Bucket_0: 2242465
Critical_ROB_Stalls_Percent_4_Bucket_1: 475
Non-critical_ROB_Stalls_Percent_4_Bucket_1: 698659
Critical_ROB_Stalls_Percent_4_Bucket_2: 71
Non-critical_ROB_Stalls_Percent_4_Bucket_2: 240437
Critical_ROB_Stalls_Percent_4_Bucket_3: 2
Non-critical_ROB_Stalls_Percent_4_Bucket_3: 56173
Critical_ROB_Stalls_Percent_4_Bucket_4: 4
Non-critical_ROB_Stalls_Percent_4_Bucket_4: 19874
Critical_ROB_Stalls_Percent_4_Bucket_5: 4
Non-critical_ROB_Stalls_Percent_4_Bucket_5: 9310
Critical_ROB_Stalls_Percent_4_Bucket_6: 18
Non-critical_ROB_Stalls_Percent_4_Bucket_6: 21605
Critical_ROB_Stalls_Percent_5_Bucket_0: 120558
Non-critical_ROB_Stalls_Percent_5_Bucket_0: 2242465
Critical_ROB_Stalls_Percent_5_Bucket_1: 475
Non-critical_ROB_Stalls_Percent_5_Bucket_1: 698659
Critical_ROB_Stalls_Percent_5_Bucket_2: 71
Non-critical_ROB_Stalls_Percent_5_Bucket_2: 240437
Critical_ROB_Stalls_Percent_5_Bucket_3: 2
Non-critical_ROB_Stalls_Percent_5_Bucket_3: 56173
Critical_ROB_Stalls_Percent_5_Bucket_4: 4
Non-critical_ROB_Stalls_Percent_5_Bucket_4: 19874
Critical_ROB_Stalls_Percent_5_Bucket_5: 4
Non-critical_ROB_Stalls_Percent_5_Bucket_5: 9310
Critical_ROB_Stalls_Percent_5_Bucket_6: 18
Non-critical_ROB_Stalls_Percent_5_Bucket_6: 21605
Critical_ROB_Stalls_Percent_6_Bucket_0: 120558
Non-critical_ROB_Stalls_Percent_6_Bucket_0: 2242465
Critical_ROB_Stalls_Percent_6_Bucket_1: 475
Non-critical_ROB_Stalls_Percent_6_Bucket_1: 698659
Critical_ROB_Stalls_Percent_6_Bucket_2: 71
Non-critical_ROB_Stalls_Percent_6_Bucket_2: 240437
Critical_ROB_Stalls_Percent_6_Bucket_3: 2
Non-critical_ROB_Stalls_Percent_6_Bucket_3: 56173
Critical_ROB_Stalls_Percent_6_Bucket_4: 4
Non-critical_ROB_Stalls_Percent_6_Bucket_4: 19874
Critical_ROB_Stalls_Percent_6_Bucket_5: 4
Non-critical_ROB_Stalls_Percent_6_Bucket_5: 9310
Critical_ROB_Stalls_Percent_6_Bucket_6: 18
Non-critical_ROB_Stalls_Percent_6_Bucket_6: 21605
Critical_ROB_Stalls_Percent_7_Bucket_0: 120558
Non-critical_ROB_Stalls_Percent_7_Bucket_0: 2242465
Critical_ROB_Stalls_Percent_7_Bucket_1: 475
Non-critical_ROB_Stalls_Percent_7_Bucket_1: 698659
Critical_ROB_Stalls_Percent_7_Bucket_2: 71
Non-critical_ROB_Stalls_Percent_7_Bucket_2: 240437
Critical_ROB_Stalls_Percent_7_Bucket_3: 2
Non-critical_ROB_Stalls_Percent_7_Bucket_3: 56173
Critical_ROB_Stalls_Percent_7_Bucket_4: 4
Non-critical_ROB_Stalls_Percent_7_Bucket_4: 19874
Critical_ROB_Stalls_Percent_7_Bucket_5: 4
Non-critical_ROB_Stalls_Percent_7_Bucket_5: 9310
Critical_ROB_Stalls_Percent_7_Bucket_6: 18
Non-critical_ROB_Stalls_Percent_7_Bucket_6: 21605
Critical_ROB_Stalls_Percent_8_Bucket_0: 120558
Non-critical_ROB_Stalls_Percent_8_Bucket_0: 2242465
Critical_ROB_Stalls_Percent_8_Bucket_1: 475
Non-critical_ROB_Stalls_Percent_8_Bucket_1: 698659
Critical_ROB_Stalls_Percent_8_Bucket_2: 71
Non-critical_ROB_Stalls_Percent_8_Bucket_2: 240437
Critical_ROB_Stalls_Percent_8_Bucket_3: 2
Non-critical_ROB_Stalls_Percent_8_Bucket_3: 56173
Critical_ROB_Stalls_Percent_8_Bucket_4: 4
Non-critical_ROB_Stalls_Percent_8_Bucket_4: 19874
Critical_ROB_Stalls_Percent_8_Bucket_5: 4
Non-critical_ROB_Stalls_Percent_8_Bucket_5: 9310
Critical_ROB_Stalls_Percent_8_Bucket_6: 18
Non-critical_ROB_Stalls_Percent_8_Bucket_6: 21605
Average ROB occupancy Load Stall Begin: 38.1103
Average ROB occupancy Load Stall End: 46.3112
Min ROB occupancy Load Stall Begin: 1
Max ROB occupancy Load Stall Begin: 352
Min ROB occupancy Load Stall End: 1
Max ROB occupancy Load Stall End: 352
Average ROB occupancy Critical Load Stall Begin: -nan
Average ROB occupancy Critical Load Stall End: -nan
Min ROB occupancy Critical Load Stall Begin: 400
Max ROB occupancy Critical Load Stall Begin: 0
Min ROB occupancy Critical Load Stall End: 400
Max ROB occupancy Critical Load Stall End: 0
 ROB Load Stall Begin Bucket Count 0: 2593916
 ROB Load Stall End Bucket Count 0: 2363023
 ROB Critical Load Stall Begin Bucket Count 0: 0
 ROB Critical Load Stall End Bucket Count 0: 0
 ROB Load Stall Begin Bucket Count 1: 553693
 ROB Load Stall End Bucket Count 1: 699134
 ROB Critical Load Stall Begin Bucket Count 1: 0
 ROB Critical Load Stall End Bucket Count 1: 0
 ROB Load Stall Begin Bucket Count 2: 176732
 ROB Load Stall End Bucket Count 2: 240508
 ROB Critical Load Stall Begin Bucket Count 2: 0
 ROB Critical Load Stall End Bucket Count 2: 0
 ROB Load Stall Begin Bucket Count 3: 40240
 ROB Load Stall End Bucket Count 3: 56175
 ROB Critical Load Stall Begin Bucket Count 3: 0
 ROB Critical Load Stall End Bucket Count 3: 0
 ROB Load Stall Begin Bucket Count 4: 16081
 ROB Load Stall End Bucket Count 4: 19878
 ROB Critical Load Stall Begin Bucket Count 4: 0
 ROB Critical Load Stall End Bucket Count 4: 0
 ROB Load Stall Begin Bucket Count 5: 8356
 ROB Load Stall End Bucket Count 5: 9314
 ROB Critical Load Stall Begin Bucket Count 5: 0
 ROB Critical Load Stall End Bucket Count 5: 0
 ROB Load Stall Begin Bucket Count 6: 20637
 ROB Load Stall End Bucket Count 6: 21623
 ROB Critical Load Stall Begin Bucket Count 6: 0
 ROB Critical Load Stall End Bucket Count 6: 0
PIST Tag Read Accesses: 0
PIST Read Accesses: 0
PIST Tag Write Accesses: 0
PIST Write Accesses: 0
Criticality detector called times: 0
Max global_stall_cycles_count: 0
Threshold Modified: 0 times, factor: 0
ITLB TOTAL     ACCESS:    9968513  HIT:    9373870  MISS:     594643  HIT %:    94.0348  MISS %:    5.96521   MPKI: 11.8929
ITLB LOAD TRANSLATION ACCESS:    8217973  HIT:    8125341  MISS:      92632  HIT %:    98.8728  MISS %:    1.12719   MPKI: 1.85264
ITLB TRANSLATION FROM L1D PREFETCHER ACCESS:    1750540  HIT:    1248529  MISS:     502011  HIT %:    71.3225  MISS %:    28.6775   MPKI: 10.0402
ITLB PREFETCH  REQUESTED:          0  ISSUED:          0  USEFUL:     392618  USELESS:     109404
ITLB USEFUL LOAD PREFETCHES:     392618 PREFETCH ISSUED TO LOWER LEVEL:          0  ACCURACY: inf
ITLB TIMELY PREFETCHES:     392618 LATE PREFETCHES: 415 DROPPED PREFETCHES: 3062
ITLB PREFETCHES SAME FILL-ORIGIN LEVEL: 0 DIFFERENT FILL-ORIGIN LEVEL: 0
ITLB AVERAGE MISS LATENCY: 36040.1 cycles
ITLB RQ	ACCESS:   14416366	FORWARD:          0	MERGED:    4405857	TO_CACHE:   10010509

DTLB TOTAL     ACCESS:   11093135  HIT:   10642061  MISS:     451074  HIT %:    95.9338  MISS %:    4.06624   MPKI: 9.02148
DTLB LOAD TRANSLATION ACCESS:   11093135  HIT:   10642061  MISS:     451074  HIT %:    95.9338  MISS %:    4.06624   MPKI: 9.02148
DTLB PREFETCH  REQUESTED:          0  ISSUED:          0  USEFUL:          0  USELESS:          0
DTLB USEFUL LOAD PREFETCHES:          0 PREFETCH ISSUED TO LOWER LEVEL:          0  ACCURACY: -nan
DTLB TIMELY PREFETCHES:          0 LATE PREFETCHES: 0 DROPPED PREFETCHES: 0
DTLB PREFETCHES SAME FILL-ORIGIN LEVEL: 0 DIFFERENT FILL-ORIGIN LEVEL: 0
DTLB AVERAGE MISS LATENCY: 9.57021 cycles
DTLB RQ	ACCESS:   14448511	FORWARD:          0	MERGED:    3329340	TO_CACHE:   11119171

STLB TOTAL     ACCESS:    1469498  HIT:    1466424  MISS:       3074  HIT %:    99.7908  MISS %:   0.209187   MPKI: 0.06148
STLB LOAD TRANSLATION ACCESS:     543292  HIT:     540450  MISS:       2842  HIT %:    99.4769  MISS %:   0.523107   MPKI: 0.05684
STLB TRANSLATION FROM L1D PREFETCHER ACCESS:     926206  HIT:     925974  MISS:        232  HIT %:     99.975  MISS %:  0.0250484   MPKI: 0.00464
STLB PREFETCH  REQUESTED:          0  ISSUED:          0  USEFUL:        189  USELESS:         42
STLB USEFUL LOAD PREFETCHES:        189 PREFETCH ISSUED TO LOWER LEVEL:          0  ACCURACY: inf
STLB TIMELY PREFETCHES:        189 LATE PREFETCHES: 0 DROPPED PREFETCHES: 3063
STLB PREFETCHES SAME FILL-ORIGIN LEVEL: 0 DIFFERENT FILL-ORIGIN LEVEL: 0
STLB AVERAGE MISS LATENCY: 95.4945 cycles
STLB RQ	ACCESS:    1700693	FORWARD:          0	MERGED:     228132	TO_CACHE:    1472561

STLB Hit, L1D data hit: 0
STLB Hit, L2C data hit: 0
STLB Hit, LLC data hit: 0
STLB Hit, LLC data miss: 0
STLB STLB hints to L2: 0
L1D TOTAL     ACCESS:   14569754  HIT:   13531171  MISS:    1038583  HIT %:    92.8717  MISS %:    7.12835   MPKI: 20.7717
L1D LOAD      ACCESS:    7903731  HIT:    7233590  MISS:     670141  HIT %:    91.5212  MISS %:    8.47879   MPKI: 13.4028
L1D RFO       ACCESS:    6069690  HIT:    5798640  MISS:     271050  HIT %:    95.5344  MISS %:    4.46563   MPKI: 5.421
L1D PREFETCH  ACCESS:     596333  HIT:     498941  MISS:      97392  HIT %:    83.6682  MISS %:    16.3318   MPKI: 1.94784
L1D PREFETCH  REQUESTED:    1303961  ISSUED:    1303958  USEFUL:      39498  USELESS:      57860
L1D USEFUL LOAD PREFETCHES:      39498 PREFETCH ISSUED TO LOWER LEVEL:     140648  ACCURACY: 28.0829
L1D TIMELY PREFETCHES:      39498 LATE PREFETCHES: 43171 DROPPED PREFETCHES: 0
L1D PREFETCHES SAME FILL-ORIGIN LEVEL: 140648 DIFFERENT FILL-ORIGIN LEVEL: 0
L1D AVERAGE MISS LATENCY: 2.22975e+06 cycles
L1D RQ	ACCESS:   11307912	FORWARD:          0	MERGED:    3243362	TO_CACHE:    7938367
L1D WQ	ACCESS:    6576972	FORWARD:     126315	MERGED:      66828	TO_CACHE:    6510144
L1D PQ	ACCESS:     652045	FORWARD:          0	MERGED:          0	TO_CACHE:     651913

L1D UNIQUE REGIONS ACCESSED: 0
L1D REGIONS CONFLICTS: 0
L1D Cross Page Prefetch Requests: 0
L1D Same Page Prefetch Requests: 659126
L1D ROI Sum of L1D PQ occupancy: 8435390
L1D PREFETCHES PUSHED FROM L2C: 0
L1I TOTAL     ACCESS:   14270930  HIT:   10662152  MISS:    3608778  HIT %:    74.7124  MISS %:    25.2876   MPKI: 72.1756
L1I LOAD      ACCESS:    9510006  HIT:    9227385  MISS:     282621  HIT %:    97.0282  MISS %:    2.97183   MPKI: 5.65242
L1I PREFETCH  ACCESS:    4760924  HIT:    1434767  MISS:    3326157  HIT %:    30.1363  MISS %:    69.8637   MPKI: 66.5231
L1I PREFETCH  REQUESTED:    5012922  ISSUED:    5000479  USEFUL:    2238777  USELESS:    1087433
L1I USEFUL LOAD PREFETCHES:    2238777 PREFETCH ISSUED TO LOWER LEVEL:    3357976  ACCURACY: 66.6704
L1I TIMELY PREFETCHES:    2238777 LATE PREFETCHES: 31819 DROPPED PREFETCHES: 7516
L1I PREFETCHES SAME FILL-ORIGIN LEVEL: 3357976 DIFFERENT FILL-ORIGIN LEVEL: 0
L1I AVERAGE MISS LATENCY: 461653 cycles
L1I RQ	ACCESS:   13479075	FORWARD:          0	MERGED:    3945990	TO_CACHE:    9533085
L1I PQ	ACCESS:    5000479	FORWARD:          0	MERGED:     117198	TO_CACHE:    4883281

BTB TOTAL     ACCESS:    6310558  HIT:    4653138  MISS:    1657420  HIT %:    73.7358  MISS %:    26.2642   MPKI: 33.1484
BTB BRANCH_DIRECT_JUMP	ACCESS:     548369  HIT:     407711  MISS:     140658
BTB BRANCH_INDIRECT	ACCESS:     189802  HIT:     158498  MISS:      31304
BTB BRANCH_CONDITIONAL	ACCESS:    3531693  HIT:    3094100  MISS:     437593
BTB BRANCH_DIRECT_CALL	ACCESS:     862205  HIT:     537301  MISS:     324904
BTB BRANCH_INDIRECT_CALL	ACCESS:     158147  HIT:      91210  MISS:      66937
BTB BRANCH_RETURN	ACCESS:    1020342  HIT:     364318  MISS:     656024
BTB BRANCH_OTHER ACCESS:          0  HIT:          0  MISS:          0

L2C TOTAL     ACCESS:    5118976  HIT:    4602381  MISS:     516595  HIT %:    89.9082  MISS %:    10.0918   MPKI: 10.3319
L2C LOAD      ACCESS:     877738  HIT:     737350  MISS:     140388  HIT %:    84.0057  MISS %:    15.9943   MPKI: 2.80776
L2C DATA LOAD MPKI: 2.07702
L2C INSTRUCTION LOAD MPKI: 0.73074
L2C RFO       ACCESS:     270960  HIT:     209149  MISS:      61811  HIT %:    77.1881  MISS %:    22.8119   MPKI: 1.23622
L2C PREFETCH  ACCESS:    3498624  HIT:    3203827  MISS:     294797  HIT %:    91.5739  MISS %:    8.42608   MPKI: 5.89594
L2C DATA PREFETCH MPKI: 1.13494
L2C INSTRUCTION PREFETCH MPKI: 4.761
L2C WRITEBACK ACCESS:     463219  HIT:     446082  MISS:      17137  HIT %:    96.3005  MISS %:    3.69955   MPKI: 0.34274
L2C LOAD TRANSLATION ACCESS:       3071  HIT:        870  MISS:       2201  HIT %:    28.3295  MISS %:    71.6705   MPKI: 0.04402
L2C TRANSLATION FROM L1D PREFETCHER ACCESS:       5364  HIT:       5103  MISS:        261  HIT %:    95.1342  MISS %:    4.86577   MPKI: 0.00522
L2C PREFETCH  REQUESTED:          0  ISSUED:          0  USEFUL:      10550  USELESS:     284420
L2C USEFUL LOAD PREFETCHES:      10550 PREFETCH ISSUED TO LOWER LEVEL:     294797  ACCURACY: 3.57873
L2C TIMELY PREFETCHES:      10550 LATE PREFETCHES: 0 DROPPED PREFETCHES: 0
L2C PREFETCHES SAME FILL-ORIGIN LEVEL: 0 DIFFERENT FILL-ORIGIN LEVEL: 0
L2C AVERAGE MISS LATENCY: 42.5734 cycles
L2C RQ	ACCESS:    1157172	FORWARD:          0	MERGED:          0	TO_CACHE:    1157133
L2C WQ	ACCESS:     463219	FORWARD:         39	MERGED:          0	TO_CACHE:     463219
L2C PQ	ACCESS:    3498624	FORWARD:          0	MERGED:          0	TO_CACHE:    3498624

L2C Instructions Evicting Data 118647
L2C Translations Evicting Data 1433
L2C Data Evicting Data 111686
L2C Instructions Evicting Instructions 155008
L2C Translations Evicting Instructions 1007
L2C Data Evicting Instructions 109267
L2C Instructions Evicting Translations 932
L2C Translations Evicting Translations 22
L2C Data Evicting Translations 1456
L2C Dense regions hint from L2: 0
PSCL5 TOTAL     ACCESS:       6137  HIT:       6137  MISS:          0  HIT %:        100  MISS %:          0   MPKI: 0
PSCL5 LOAD TRANSLATION ACCESS:       2842  HIT:       2842  MISS:          0  HIT %:        100  MISS %:          0   MPKI: 0
PSCL5 TRANSLATION FROM L1D PREFETCHER ACCESS:       3295  HIT:       3295  MISS:          0  HIT %:        100  MISS %:          0   MPKI: 0
PSCL5 PREFETCH  REQUESTED:          0  ISSUED:          0  USEFUL:          0  USELESS:          0
PSCL5 USEFUL LOAD PREFETCHES:          0 PREFETCH ISSUED TO LOWER LEVEL:          0  ACCURACY: -nan
PSCL5 TIMELY PREFETCHES:          0 LATE PREFETCHES: 0 DROPPED PREFETCHES: 0
PSCL5 PREFETCHES SAME FILL-ORIGIN LEVEL: 0 DIFFERENT FILL-ORIGIN LEVEL: 0

PSCL4 TOTAL     ACCESS:       5791  HIT:       5775  MISS:         16  HIT %:    99.7237  MISS %:   0.276291   MPKI: 0.00032
PSCL4 LOAD TRANSLATION ACCESS:       2508  HIT:       2492  MISS:         16  HIT %:     99.362  MISS %:   0.637959   MPKI: 0.00032
PSCL4 TRANSLATION FROM L1D PREFETCHER ACCESS:       3283  HIT:       3283  MISS:          0  HIT %:        100  MISS %:          0   MPKI: 0
PSCL4 PREFETCH  REQUESTED:          0  ISSUED:          0  USEFUL:          0  USELESS:          0
PSCL4 USEFUL LOAD PREFETCHES:          0 PREFETCH ISSUED TO LOWER LEVEL:          0  ACCURACY: -nan
PSCL4 TIMELY PREFETCHES:          0 LATE PREFETCHES: 0 DROPPED PREFETCHES: 0
PSCL4 PREFETCHES SAME FILL-ORIGIN LEVEL: 0 DIFFERENT FILL-ORIGIN LEVEL: 0

PSCL3 TOTAL     ACCESS:       6107  HIT:       6091  MISS:         16  HIT %:     99.738  MISS %:   0.261994   MPKI: 0.00032
PSCL3 LOAD TRANSLATION ACCESS:       2824  HIT:       2808  MISS:         16  HIT %:    99.4334  MISS %:   0.566572   MPKI: 0.00032
PSCL3 TRANSLATION FROM L1D PREFETCHER ACCESS:       3283  HIT:       3283  MISS:          0  HIT %:        100  MISS %:          0   MPKI: 0
PSCL3 PREFETCH  REQUESTED:          0  ISSUED:          0  USEFUL:          0  USELESS:          0
PSCL3 USEFUL LOAD PREFETCHES:          0 PREFETCH ISSUED TO LOWER LEVEL:          0  ACCURACY: -nan
PSCL3 TIMELY PREFETCHES:          0 LATE PREFETCHES: 0 DROPPED PREFETCHES: 0
PSCL3 PREFETCHES SAME FILL-ORIGIN LEVEL: 0 DIFFERENT FILL-ORIGIN LEVEL: 0

PSCL2 TOTAL     ACCESS:       4116  HIT:       3854  MISS:        262  HIT %:    93.6346  MISS %:     6.3654   MPKI: 0.00524
PSCL2 LOAD TRANSLATION ACCESS:       2872  HIT:       2610  MISS:        262  HIT %:    90.8774  MISS %:    9.12256   MPKI: 0.00524
PSCL2 TRANSLATION FROM L1D PREFETCHER ACCESS:       1244  HIT:       1244  MISS:          0  HIT %:        100  MISS %:          0   MPKI: 0
PSCL2 PREFETCH  REQUESTED:          0  ISSUED:          0  USEFUL:          0  USELESS:          0
PSCL2 USEFUL LOAD PREFETCHES:          0 PREFETCH ISSUED TO LOWER LEVEL:          0  ACCURACY: -nan
PSCL2 TIMELY PREFETCHES:          0 LATE PREFETCHES: 0 DROPPED PREFETCHES: 0
PSCL2 PREFETCHES SAME FILL-ORIGIN LEVEL: 0 DIFFERENT FILL-ORIGIN LEVEL: 0

LLC TOTAL     ACCESS:     586455  HIT:     544030  MISS:      42425  HIT %:    92.7659  MISS %:    7.23414   MPKI: 0.8485
LLC LOAD      ACCESS:     140388  HIT:     130446  MISS:       9942  HIT %:    92.9182  MISS %:     7.0818   MPKI: 0.19884
LLC RFO       ACCESS:      61811  HIT:      42952  MISS:      18859  HIT %:    69.4892  MISS %:    30.5108   MPKI: 0.37718
LLC PREFETCH  ACCESS:     294796  HIT:     281988  MISS:      12808  HIT %:    95.6553  MISS %:     4.3447   MPKI: 0.25616
LLC WRITEBACK ACCESS:      86998  HIT:      86551  MISS:        447  HIT %:    99.4862  MISS %:   0.513805   MPKI: 0.00894
LLC LOAD TRANSLATION ACCESS:       2201  HIT:       1864  MISS:        337  HIT %:    84.6888  MISS %:    15.3112   MPKI: 0.00674
LLC TRANSLATION FROM L1D PREFETCHER ACCESS:        261  HIT:        229  MISS:         32  HIT %:    87.7395  MISS %:    12.2605   MPKI: 0.00064
LLC PREFETCH  REQUESTED:          0  ISSUED:          0  USEFUL:        494  USELESS:       7731
LLC USEFUL LOAD PREFETCHES:        494 PREFETCH ISSUED TO LOWER LEVEL:      12808  ACCURACY: 3.85696
LLC TIMELY PREFETCHES:        494 LATE PREFETCHES: 0 DROPPED PREFETCHES: 0
LLC PREFETCHES SAME FILL-ORIGIN LEVEL: 0 DIFFERENT FILL-ORIGIN LEVEL: 0
LLC AVERAGE MISS LATENCY: 164.118 cycles
LLC RQ	ACCESS:     204661	FORWARD:          0	MERGED:          0	TO_CACHE:     204661
LLC WQ	ACCESS:      86998	FORWARD:          1	MERGED:          0	TO_CACHE:      86998
LLC PQ	ACCESS:     294797	FORWARD:          0	MERGED:          0	TO_CACHE:     294796

LLC Dense regions hint to LLC: 0

RAW hits: 922386
Loads Generated: 12230298
Loads sent to L1D: 11307912
Stores Generated: 6576955
Stores sent to L1D: 6576972
Major fault: 0 Minor fault: 2897
Allocated PAGES: 2897
I-Shadow cache 408 bytes
Touched + WorthPF tables 6144 bytes 
MMA filter 174 bytes 
FNL filter 272 bytes 
TOTAL PREFETCHER STORAGE SIZE: 25174 bytes
CPU 0 L1I next line prefetcher final stats

stream: 
stream:times selected: 751532
stream:pref_filled: 49843
stream:pref_useful: 8347
stream:pref_late: 34876
stream:misses: 5687
stream:misses_by_poll: 0

CS: 
CS:times selected: 196576
CS:pref_filled: 38138
CS:pref_useful: 28505
CS:pref_late: 3869
CS:misses: 6903
CS:misses_by_poll: 46

CPLX: 
CPLX:times selected: 553814
CPLX:pref_filled: 11889
CPLX:pref_useful: 3727
CPLX:pref_late: 4287
CPLX:misses: 65224
CPLX:misses_by_poll: 12

NL_L1: 
NL:times selected: 5045
NL:pref_filled: 204
NL:pref_useful: 45
NL:pref_late: 7
NL:misses: 275
NL:misses_by_poll: 0

total selections: 1506967
total_filled: 97392
total_useful: 39498
total_late: 44078
total_polluted: 58
total_misses_after_warmup: 135705
conflicts: 175140
Degree Incremented Times: 46
Degree Decremented Times: 9928

L1 IP Table Write Accesses: 1300646
L1 IP Table Read Accesses: 1125506
L1 RST Write Accesses: 745635
L1 RST Read Accesses: 1491270
L1 CSPT Write Accesses: 745635
L1 CSPT Read Accesses: 1294143
L1 RR Filter Tag Write Accesses: 652048
L1 RR Filter Tag Read Accesses: 41504209
L1 IP Table Tag Write Accesses: 1532162
L1 IP Table Tag Read Accesses: 1532162
L1 RST Tag Write Accesses: 0
L1 RST Tag Read Accesses: 6484946
L1 RR Filter Write Accesses: 0
L1 RR Filter Read Accesses: 1452145
test: 80181

DRAM Statistics
 CHANNEL 0
 RQ ROW_BUFFER_HIT:      13073  ROW_BUFFER_MISS:      28901
 DBUS_CONGESTED:         10
 WQ ROW_BUFFER_HIT:       2530  ROW_BUFFER_MISS:      20441  FULL:          0

 AVG_CONGESTED_CYCLE: 4
 All warmup complete: 2
Channel 0 Bank busy for read cycles: 0
Channel 0 Bank busy for write cycles: 0
Channel 0
Rank 0
0banks busy for read cycles: 74259682
0banks busy for write cycles: 5469
1banks busy for read cycles: 1671683
1banks busy for write cycles: 745479
2banks busy for read cycles: 406627
2banks busy for write cycles: 231125
3banks busy for read cycles: 182566
3banks busy for write cycles: 137237
4banks busy for read cycles: 92797
4banks busy for write cycles: 106410
5banks busy for read cycles: 45493
5banks busy for write cycles: 77135
6banks busy for read cycles: 41506
6banks busy for write cycles: 81346
7banks busy for read cycles: 42827
7banks busy for write cycles: 75754
8banks busy for read cycles: 105311
8banks busy for write cycles: 138293

CPU 0 Branch Prediction Accuracy: 99.6798% MPKI: 0.58608 Average ROB Occupancy at Mispredict: 61.5336
Branch types
NOT_BRANCH: 40848088 81.6962%
BRANCH_DIRECT_JUMP: 548369 1.09674%
BRANCH_INDIRECT: 189802 0.379604%
BRANCH_CONDITIONAL: 6372728 12.7455%
BRANCH_DIRECT_CALL: 862205 1.72441%
BRANCH_INDIRECT_CALL: 158147 0.316294%
BRANCH_RETURN: 1020342 2.04068%
BRANCH_OTHER: 0 0%

DRAM PAGES: 1048576
Allocated PAGES: 2897
