
*** ChampSim Multicore Out-of-Order Simulator ***

Warmup Instructions: 50000000
Simulation Instructions: 50000000
Number of CPUs: 1
LLC sets: 2048
LLC ways: 16
Off-chip DRAM Size: 4096 MB Channels: 1 Width: 64-bit Data Rate: 6400 MT/s
CPU 0 runs ../IPC-traces//server_024.champsimtrace.xz
.xz
NUM_OF_IPS_IN_CRITICAL_IP_TRAINING: 64
NUM_OF_CRITICAL_IP_TRAINING_TABLE_WAYS: 2
NUM_OF_CRITICAL_IP_TRAINING_TABLE_SETS: 32
WOBBLY_CRITICAL_IP_CACHE_SETS: 32
WOBBLY_CRITICAL_IP_CACHE_WAYS: 4
BTB has LRU replacement policy
ITLB has LRU replacement policy
DTLB has LRU replacement policy
STLB has LRU replacement policy
CPU 0 L1I next line prefetcher
L1I has LRU replacement policy
L1D has LRU replacement policy
Bingo PHT WAYS: 16 and PHT_SIZE: 16384
Initialize SRRIP state for L2C
Initialize DRRIP state for LLC
Heartbeat CPU 0 instructions: 10000000 cycles: 2872217 heartbeat IPC: 3.48163 cumulative IPC: 3.48163 (Simulation time: 0 hr 3 min 19 sec) 
Heartbeat CPU 0 instructions: 20000002 cycles: 5738442 heartbeat IPC: 3.48891 cumulative IPC: 3.48527 (Simulation time: 0 hr 6 min 1 sec) 
Heartbeat CPU 0 instructions: 30000002 cycles: 8606888 heartbeat IPC: 3.48621 cumulative IPC: 3.48558 (Simulation time: 0 hr 8 min 36 sec) 
Heartbeat CPU 0 instructions: 40000000 cycles: 11475504 heartbeat IPC: 3.486 cumulative IPC: 3.48569 (Simulation time: 0 hr 10 min 52 sec) 
Heartbeat CPU 0 instructions: 50000001 cycles: 14341028 heartbeat IPC: 3.48976 cumulative IPC: 3.4865 (Simulation time: 0 hr 12 min 52 sec) 

Warmup complete CPU 0 instructions: 50000001 cycles: 14341028 (Simulation time: 0 hr 12 min 52 sec) 

% increase in all ip prefetch 387.99
% increase in all ip prefetch 1.93919
Heartbeat CPU 0 instructions: 60000003 cycles: 29896388 heartbeat IPC: 0.642865 cumulative IPC: 0.642865 (Simulation time: 0 hr 15 min 14 sec) 
Heartbeat CPU 0 instructions: 70000000 cycles: 45433133 heartbeat IPC: 0.643635 cumulative IPC: 0.64325 (Simulation time: 0 hr 17 min 37 sec) 
*** Reached end of trace for Core: 0 Repeating trace: ../IPC-traces//server_024.champsimtrace.xz
Heartbeat CPU 0 instructions: 80000003 cycles: 60904155 heartbeat IPC: 0.64637 cumulative IPC: 0.644287 (Simulation time: 0 hr 20 min 3 sec) 
Heartbeat CPU 0 instructions: 90000003 cycles: 76408980 heartbeat IPC: 0.644961 cumulative IPC: 0.644455 (Simulation time: 0 hr 22 min 23 sec) 
Heartbeat CPU 0 instructions: 100000002 cycles: 91977483 heartbeat IPC: 0.642322 cumulative IPC: 0.644027 (Simulation time: 0 hr 25 min 25 sec) 
Finished CPU 0 instructions: 50000001 cycles: 77636455 cumulative IPC: 0.644027 (Simulation time: 0 hr 25 min 25 sec) 

ChampSim completed all CPUs

Region of Interest Statistics

CPU 0 cumulative IPC: 0.644027 instructions: 50000001 cycles: 77636455

CPU 0 Average Load ROB stall cycles: 1.9443e+07
CPU 0 Fraction of times ROB stalled by Loads: 36.5689
CPU 0 Percentage of Load stall cycles in Total stall cycles: 2.83792e+08
Issued all: 27845786
Issued LT all: 22011738
rob_not_full_when_issued_lt_all: 21516107
Issued LT one: 17026148
rob_not_full_when_issued_lt_one: 16594851
 Total stall cycles: 64349116
 Total load stall cycles: 182617885617288
CPU 0 NUM of IPS identified critical: 0
CPU 0 Num of Load IPs stalling ROB: 12200
Threshold modification factor: -1
Max PIST entries: 64
Min PIST entries: 0
Avg PIST entries: 32
Trouble in retire width: 0.89727
MaC = Marked as critical.
lt_50_percent_before_Mac: 0
gt_90_percent_before_Mac: 0
gt_75_percent_before_Mac: 0
gt_50_percent_before_Mac: 0
stall_proportion_bin_same_before_after: 0
stall_proportion_bin_lower_before_after: 0
stall_proportion_bin_upper_before_after: 0
average_stall_proportion_before: -nan
average_stall_proportion_after: -nan
Critical IP stalls, total frequency: 0
Non-critical IP stalls, total frequency: 3434727
Total Freq all stalling IPs: 3434727
stat_90_percent_critical_ip_stalls_freq: 3091409
stat_90_percent_non_critical_ip_stalls_freq: 343318
Critical_IP_ROB_Stalls_Bucket_0: 0
Non-critical_IP_ROB_Stalls_Bucket_0: 2379584
Critical_IP_ROB_Stalls_Bucket_1: 0
Non-critical_IP_ROB_Stalls_Bucket_1: 712508
Critical_IP_ROB_Stalls_Bucket_2: 0
Non-critical_IP_ROB_Stalls_Bucket_2: 239611
Critical_IP_ROB_Stalls_Bucket_3: 0
Non-critical_IP_ROB_Stalls_Bucket_3: 50823
Critical_IP_ROB_Stalls_Bucket_4: 0
Non-critical_IP_ROB_Stalls_Bucket_4: 18491
Critical_IP_ROB_Stalls_Bucket_5: 0
Non-critical_IP_ROB_Stalls_Bucket_5: 10189
Critical_IP_ROB_Stalls_Bucket_6: 0
Non-critical_IP_ROB_Stalls_Bucket_6: 23521
0 => IPs accounting for >50 percent of stalls, 1 => 55, 2 => 60, 3 => 65 and so on till 90.
percent50: 50.0292 num IPs:  438
percent55: 55.0081 num IPs: 621
percent60: 60.0125 num IPs: 870
percent65: 65.0165 num IPs: 1131
percent70: 70.0067 num IPs: 1440
percent75: 75.0031 num IPs: 1820
percent80: 80.0099 num IPs: 2309
percent85: 85.0072 num IPs: 2819
percent90: 90.0056 num IPs: 3372
Critical_ROB_Stalls_Percent_0_Bucket_0: 940456
Non-critical_ROB_Stalls_Percent_0_Bucket_0: 1439128
Critical_ROB_Stalls_Percent_0_Bucket_1: 491950
Non-critical_ROB_Stalls_Percent_0_Bucket_1: 220558
Critical_ROB_Stalls_Percent_0_Bucket_2: 195526
Non-critical_ROB_Stalls_Percent_0_Bucket_2: 44085
Critical_ROB_Stalls_Percent_0_Bucket_3: 43861
Non-critical_ROB_Stalls_Percent_0_Bucket_3: 6962
Critical_ROB_Stalls_Percent_0_Bucket_4: 16000
Non-critical_ROB_Stalls_Percent_0_Bucket_4: 2491
Critical_ROB_Stalls_Percent_0_Bucket_5: 9027
Non-critical_ROB_Stalls_Percent_0_Bucket_5: 1162
Critical_ROB_Stalls_Percent_0_Bucket_6: 21546
Non-critical_ROB_Stalls_Percent_0_Bucket_6: 1975
Critical_ROB_Stalls_Percent_1_Bucket_0: 1064746
Non-critical_ROB_Stalls_Percent_1_Bucket_0: 1314838
Critical_ROB_Stalls_Percent_1_Bucket_1: 526529
Non-critical_ROB_Stalls_Percent_1_Bucket_1: 185979
Critical_ROB_Stalls_Percent_1_Bucket_2: 204283
Non-critical_ROB_Stalls_Percent_1_Bucket_2: 35328
Critical_ROB_Stalls_Percent_1_Bucket_3: 45716
Non-critical_ROB_Stalls_Percent_1_Bucket_3: 5107
Critical_ROB_Stalls_Percent_1_Bucket_4: 16610
Non-critical_ROB_Stalls_Percent_1_Bucket_4: 1881
Critical_ROB_Stalls_Percent_1_Bucket_5: 9119
Non-critical_ROB_Stalls_Percent_1_Bucket_5: 1070
Critical_ROB_Stalls_Percent_1_Bucket_6: 22374
Non-critical_ROB_Stalls_Percent_1_Bucket_6: 1147
Critical_ROB_Stalls_Percent_2_Bucket_0: 1199098
Non-critical_ROB_Stalls_Percent_2_Bucket_0: 1180486
Critical_ROB_Stalls_Percent_2_Bucket_1: 557846
Non-critical_ROB_Stalls_Percent_2_Bucket_1: 154662
Critical_ROB_Stalls_Percent_2_Bucket_2: 210100
Non-critical_ROB_Stalls_Percent_2_Bucket_2: 29511
Critical_ROB_Stalls_Percent_2_Bucket_3: 46017
Non-critical_ROB_Stalls_Percent_2_Bucket_3: 4806
Critical_ROB_Stalls_Percent_2_Bucket_4: 16672
Non-critical_ROB_Stalls_Percent_2_Bucket_4: 1819
Critical_ROB_Stalls_Percent_2_Bucket_5: 9141
Non-critical_ROB_Stalls_Percent_2_Bucket_5: 1048
Critical_ROB_Stalls_Percent_2_Bucket_6: 22386
Non-critical_ROB_Stalls_Percent_2_Bucket_6: 1135
Critical_ROB_Stalls_Percent_3_Bucket_0: 1334478
Non-critical_ROB_Stalls_Percent_3_Bucket_0: 1045106
Critical_ROB_Stalls_Percent_3_Bucket_1: 587488
Non-critical_ROB_Stalls_Percent_3_Bucket_1: 125020
Critical_ROB_Stalls_Percent_3_Bucket_2: 216557
Non-critical_ROB_Stalls_Percent_3_Bucket_2: 23054
Critical_ROB_Stalls_Percent_3_Bucket_3: 46376
Non-critical_ROB_Stalls_Percent_3_Bucket_3: 4447
Critical_ROB_Stalls_Percent_3_Bucket_4: 16695
Non-critical_ROB_Stalls_Percent_3_Bucket_4: 1796
Critical_ROB_Stalls_Percent_3_Bucket_5: 9155
Non-critical_ROB_Stalls_Percent_3_Bucket_5: 1034
Critical_ROB_Stalls_Percent_3_Bucket_6: 22388
Non-critical_ROB_Stalls_Percent_3_Bucket_6: 1133
Critical_ROB_Stalls_Percent_4_Bucket_0: 1473212
Non-critical_ROB_Stalls_Percent_4_Bucket_0: 906372
Critical_ROB_Stalls_Percent_4_Bucket_1: 613828
Non-critical_ROB_Stalls_Percent_4_Bucket_1: 98680
Critical_ROB_Stalls_Percent_4_Bucket_2: 222344
Non-critical_ROB_Stalls_Percent_4_Bucket_2: 17267
Critical_ROB_Stalls_Percent_4_Bucket_3: 46793
Non-critical_ROB_Stalls_Percent_4_Bucket_3: 4030
Critical_ROB_Stalls_Percent_4_Bucket_4: 16744
Non-critical_ROB_Stalls_Percent_4_Bucket_4: 1747
Critical_ROB_Stalls_Percent_4_Bucket_5: 9214
Non-critical_ROB_Stalls_Percent_4_Bucket_5: 975
Critical_ROB_Stalls_Percent_4_Bucket_6: 22400
Non-critical_ROB_Stalls_Percent_4_Bucket_6: 1121
Critical_ROB_Stalls_Percent_5_Bucket_0: 1618930
Non-critical_ROB_Stalls_Percent_5_Bucket_0: 760654
Critical_ROB_Stalls_Percent_5_Bucket_1: 634649
Non-critical_ROB_Stalls_Percent_5_Bucket_1: 77859
Critical_ROB_Stalls_Percent_5_Bucket_2: 225911
Non-critical_ROB_Stalls_Percent_5_Bucket_2: 13700
Critical_ROB_Stalls_Percent_5_Bucket_3: 47904
Non-critical_ROB_Stalls_Percent_5_Bucket_3: 2919
Critical_ROB_Stalls_Percent_5_Bucket_4: 16938
Non-critical_ROB_Stalls_Percent_5_Bucket_4: 1553
Critical_ROB_Stalls_Percent_5_Bucket_5: 9271
Non-critical_ROB_Stalls_Percent_5_Bucket_5: 918
Critical_ROB_Stalls_Percent_5_Bucket_6: 22546
Non-critical_ROB_Stalls_Percent_5_Bucket_6: 975
Critical_ROB_Stalls_Percent_6_Bucket_0: 1769678
Non-critical_ROB_Stalls_Percent_6_Bucket_0: 609906
Critical_ROB_Stalls_Percent_6_Bucket_1: 652792
Non-critical_ROB_Stalls_Percent_6_Bucket_1: 59716
Critical_ROB_Stalls_Percent_6_Bucket_2: 228164
Non-critical_ROB_Stalls_Percent_6_Bucket_2: 11447
Critical_ROB_Stalls_Percent_6_Bucket_3: 48478
Non-critical_ROB_Stalls_Percent_6_Bucket_3: 2345
Critical_ROB_Stalls_Percent_6_Bucket_4: 17086
Non-critical_ROB_Stalls_Percent_6_Bucket_4: 1405
Critical_ROB_Stalls_Percent_6_Bucket_5: 9292
Non-critical_ROB_Stalls_Percent_6_Bucket_5: 897
Critical_ROB_Stalls_Percent_6_Bucket_6: 22614
Non-critical_ROB_Stalls_Percent_6_Bucket_6: 907
Critical_ROB_Stalls_Percent_7_Bucket_0: 1926819
Non-critical_ROB_Stalls_Percent_7_Bucket_0: 452765
Critical_ROB_Stalls_Percent_7_Bucket_1: 664594
Non-critical_ROB_Stalls_Percent_7_Bucket_1: 47914
Critical_ROB_Stalls_Percent_7_Bucket_2: 229566
Non-critical_ROB_Stalls_Percent_7_Bucket_2: 10045
Critical_ROB_Stalls_Percent_7_Bucket_3: 49151
Non-critical_ROB_Stalls_Percent_7_Bucket_3: 1672
Critical_ROB_Stalls_Percent_7_Bucket_4: 17633
Non-critical_ROB_Stalls_Percent_7_Bucket_4: 858
Critical_ROB_Stalls_Percent_7_Bucket_5: 9345
Non-critical_ROB_Stalls_Percent_7_Bucket_5: 844
Critical_ROB_Stalls_Percent_7_Bucket_6: 22638
Non-critical_ROB_Stalls_Percent_7_Bucket_6: 883
Critical_ROB_Stalls_Percent_8_Bucket_0: 2076045
Non-critical_ROB_Stalls_Percent_8_Bucket_0: 303539
Critical_ROB_Stalls_Percent_8_Bucket_1: 681162
Non-critical_ROB_Stalls_Percent_8_Bucket_1: 31346
Critical_ROB_Stalls_Percent_8_Bucket_2: 234082
Non-critical_ROB_Stalls_Percent_8_Bucket_2: 5529
Critical_ROB_Stalls_Percent_8_Bucket_3: 49318
Non-critical_ROB_Stalls_Percent_8_Bucket_3: 1505
Critical_ROB_Stalls_Percent_8_Bucket_4: 17846
Non-critical_ROB_Stalls_Percent_8_Bucket_4: 645
Critical_ROB_Stalls_Percent_8_Bucket_5: 9757
Non-critical_ROB_Stalls_Percent_8_Bucket_5: 432
Critical_ROB_Stalls_Percent_8_Bucket_6: 23199
Non-critical_ROB_Stalls_Percent_8_Bucket_6: 322
Average ROB occupancy Load Stall Begin: 38.2637
Average ROB occupancy Load Stall End: 46.397
Min ROB occupancy Load Stall Begin: 1
Max ROB occupancy Load Stall Begin: 352
Min ROB occupancy Load Stall End: 1
Max ROB occupancy Load Stall End: 352
Average ROB occupancy Critical Load Stall Begin: -nan
Average ROB occupancy Critical Load Stall End: -nan
Min ROB occupancy Critical Load Stall Begin: 400
Max ROB occupancy Critical Load Stall Begin: 0
Min ROB occupancy Critical Load Stall End: 400
Max ROB occupancy Critical Load Stall End: 0
 ROB Load Stall Begin Bucket Count 0: 2611549
 ROB Load Stall End Bucket Count 0: 2379584
 ROB Critical Load Stall Begin Bucket Count 0: 0
 ROB Critical Load Stall End Bucket Count 0: 0
 ROB Load Stall Begin Bucket Count 1: 563805
 ROB Load Stall End Bucket Count 1: 712508
 ROB Critical Load Stall Begin Bucket Count 1: 0
 ROB Critical Load Stall End Bucket Count 1: 0
 ROB Load Stall Begin Bucket Count 2: 176753
 ROB Load Stall End Bucket Count 2: 239611
 ROB Critical Load Stall Begin Bucket Count 2: 0
 ROB Critical Load Stall End Bucket Count 2: 0
 ROB Load Stall Begin Bucket Count 3: 35476
 ROB Load Stall End Bucket Count 3: 50823
 ROB Critical Load Stall Begin Bucket Count 3: 0
 ROB Critical Load Stall End Bucket Count 3: 0
 ROB Load Stall Begin Bucket Count 4: 15411
 ROB Load Stall End Bucket Count 4: 18491
 ROB Critical Load Stall Begin Bucket Count 4: 0
 ROB Critical Load Stall End Bucket Count 4: 0
 ROB Load Stall Begin Bucket Count 5: 9319
 ROB Load Stall End Bucket Count 5: 10189
 ROB Critical Load Stall Begin Bucket Count 5: 0
 ROB Critical Load Stall End Bucket Count 5: 0
 ROB Load Stall Begin Bucket Count 6: 22414
 ROB Load Stall End Bucket Count 6: 23521
 ROB Critical Load Stall Begin Bucket Count 6: 0
 ROB Critical Load Stall End Bucket Count 6: 0
PIST Tag Read Accesses: 2302416
PIST Read Accesses: 1151208
PIST Tag Write Accesses: 2302416
PIST Write Accesses: 1151208
Criticality detector called times: 3277640
Max global_stall_cycles_count: 1924340
Threshold Modified: 1 times, factor: -1
Sturdy critical IP cache stats: 
 Unused entries: 0
CIC Tag Read Accesses: 0
CIC Read Accesses: 0
CIC Tag Write Accesses: 0
CIC Write Accesses: 0
Wobbly critical IP cache stats: 
 Unused entries: 125
CIC Tag Read Accesses: 84542481
CIC Read Accesses: 0
CIC Tag Write Accesses: 3
CIC Write Accesses: 0
ITLB TOTAL     ACCESS:    9883445  HIT:    9266716  MISS:     616729  HIT %:      93.76  MISS %:    6.24002   MPKI: 12.3346
ITLB LOAD TRANSLATION ACCESS:    8068808  HIT:    7978914  MISS:      89894  HIT %:    98.8859  MISS %:    1.11409   MPKI: 1.79788
ITLB TRANSLATION FROM L1D PREFETCHER ACCESS:    1814637  HIT:    1287802  MISS:     526835  HIT %:    70.9675  MISS %:    29.0325   MPKI: 10.5367
ITLB PREFETCH  REQUESTED:          0  ISSUED:          0  USEFUL:     411588  USELESS:     115253
ITLB USEFUL LOAD PREFETCHES:     411588 PREFETCH ISSUED TO LOWER LEVEL:          0  ACCURACY: inf
ITLB TIMELY PREFETCHES:     411588 LATE PREFETCHES: 351 DROPPED PREFETCHES: 2934
ITLB PREFETCHES SAME FILL-ORIGIN LEVEL: 0 DIFFERENT FILL-ORIGIN LEVEL: 0
ITLB AVERAGE MISS LATENCY: 29014.4 cycles
ITLB RQ	ACCESS:   14533786	FORWARD:          0	MERGED:    4605319	TO_CACHE:    9928467

DTLB TOTAL     ACCESS:   11348510  HIT:   10884287  MISS:     464223  HIT %:    95.9094  MISS %:    4.09061   MPKI: 9.28446
DTLB LOAD TRANSLATION ACCESS:   11348510  HIT:   10884287  MISS:     464223  HIT %:    95.9094  MISS %:    4.09061   MPKI: 9.28446
DTLB PREFETCH  REQUESTED:          0  ISSUED:          0  USEFUL:          0  USELESS:          0
DTLB USEFUL LOAD PREFETCHES:          0 PREFETCH ISSUED TO LOWER LEVEL:          0  ACCURACY: -nan
DTLB TIMELY PREFETCHES:          0 LATE PREFETCHES: 0 DROPPED PREFETCHES: 0
DTLB PREFETCHES SAME FILL-ORIGIN LEVEL: 0 DIFFERENT FILL-ORIGIN LEVEL: 0
DTLB AVERAGE MISS LATENCY: 9.39638 cycles
DTLB RQ	ACCESS:   14786945	FORWARD:          0	MERGED:    3411157	TO_CACHE:   11375788

STLB TOTAL     ACCESS:    1080952  HIT:    1077940  MISS:       3012  HIT %:    99.7214  MISS %:   0.278643   MPKI: 0.06024
STLB LOAD TRANSLATION ACCESS:     553766  HIT:     551030  MISS:       2736  HIT %:    99.5059  MISS %:   0.494072   MPKI: 0.05472
STLB TRANSLATION FROM L1D PREFETCHER ACCESS:     527186  HIT:     526910  MISS:        276  HIT %:    99.9476  MISS %:  0.0523534   MPKI: 0.00552
STLB PREFETCH  REQUESTED:          0  ISSUED:          0  USEFUL:        215  USELESS:         60
STLB USEFUL LOAD PREFETCHES:        215 PREFETCH ISSUED TO LOWER LEVEL:          0  ACCURACY: inf
STLB TIMELY PREFETCHES:        215 LATE PREFETCHES: 0 DROPPED PREFETCHES: 2934
STLB PREFETCHES SAME FILL-ORIGIN LEVEL: 0 DIFFERENT FILL-ORIGIN LEVEL: 0
STLB AVERAGE MISS LATENCY: 66.2078 cycles
STLB RQ	ACCESS:    1083886	FORWARD:          0	MERGED:          0	TO_CACHE:    1083886

STLB Hit, L1D data hit: 0
STLB Hit, L2C data hit: 0
STLB Hit, LLC data hit: 0
STLB Hit, LLC data miss: 0
STLB STLB hints to L2: 0
L1D TOTAL     ACCESS:   14289107  HIT:   13299343  MISS:     989764  HIT %:    93.0733  MISS %:     6.9267   MPKI: 19.7953
L1D LOAD      ACCESS:    8046077  HIT:    7336663  MISS:     709414  HIT %:    91.1831  MISS %:    8.81689   MPKI: 14.1883
L1D RFO       ACCESS:    6243030  HIT:    5962680  MISS:     280350  HIT %:    95.5094  MISS %:    4.49061   MPKI: 5.607
L1D PREFETCH  REQUESTED:          0  ISSUED:          0  USEFUL:          0  USELESS:          0
L1D USEFUL LOAD PREFETCHES:          0 PREFETCH ISSUED TO LOWER LEVEL:          0  ACCURACY: -nan
L1D TIMELY PREFETCHES:          0 LATE PREFETCHES: 0 DROPPED PREFETCHES: 0
L1D PREFETCHES SAME FILL-ORIGIN LEVEL: 0 DIFFERENT FILL-ORIGIN LEVEL: 0
L1D AVERAGE MISS LATENCY: 24.7236 cycles
L1D RQ	ACCESS:   11561214	FORWARD:          0	MERGED:    3350655	TO_CACHE:    8081897
L1D WQ	ACCESS:    6771059	FORWARD:     128662	MERGED:      66011	TO_CACHE:    6705048

L1D UNIQUE REGIONS ACCESSED: 0
L1D REGIONS CONFLICTS: 0
L1D Cross Page Prefetch Requests: 0
L1D Same Page Prefetch Requests: 0
L1D ROI Sum of L1D PQ occupancy: 0
L1D PREFETCHES PUSHED FROM L2C: 0
L1I TOTAL     ACCESS:   14384026  HIT:   10628667  MISS:    3755359  HIT %:    73.8922  MISS %:    26.1078   MPKI: 75.1072
L1I LOAD      ACCESS:    9398897  HIT:    9128994  MISS:     269903  HIT %:    97.1284  MISS %:    2.87165   MPKI: 5.39806
L1I PREFETCH  ACCESS:    4985129  HIT:    1499673  MISS:    3485456  HIT %:    30.0829  MISS %:    69.9171   MPKI: 69.7091
L1I PREFETCH  REQUESTED:    5236421  ISSUED:    5222590  USEFUL:    2354712  USELESS:    1130742
L1I USEFUL LOAD PREFETCHES:    2354712 PREFETCH ISSUED TO LOWER LEVEL:    3533529  ACCURACY: 66.6391
L1I TIMELY PREFETCHES:    2354712 LATE PREFETCHES: 29349 DROPPED PREFETCHES: 7857
L1I PREFETCHES SAME FILL-ORIGIN LEVEL: 3533529 DIFFERENT FILL-ORIGIN LEVEL: 0
L1I AVERAGE MISS LATENCY: 406357 cycles
L1I RQ	ACCESS:   13467361	FORWARD:          0	MERGED:    4043900	TO_CACHE:    9423461
L1I PQ	ACCESS:    5222590	FORWARD:          0	MERGED:     112265	TO_CACHE:    5110325

BTB TOTAL     ACCESS:    6210937  HIT:    4468588  MISS:    1742349  HIT %:    71.9471  MISS %:    28.0529   MPKI: 34.847
BTB BRANCH_DIRECT_JUMP	ACCESS:     566815  HIT:     417590  MISS:     149225
BTB BRANCH_INDIRECT	ACCESS:     197171  HIT:     163808  MISS:      33363
BTB BRANCH_CONDITIONAL	ACCESS:    3373175  HIT:    2911629  MISS:     461546
BTB BRANCH_DIRECT_CALL	ACCESS:     876400  HIT:     531836  MISS:     344564
BTB BRANCH_INDIRECT_CALL	ACCESS:     160491  HIT:      90228  MISS:      70263
BTB BRANCH_RETURN	ACCESS:    1036885  HIT:     353497  MISS:     683388
BTB BRANCH_OTHER ACCESS:          0  HIT:          0  MISS:          0

L2C TOTAL     ACCESS:    5684490  HIT:    5036680  MISS:     647810  HIT %:    88.6039  MISS %:    11.3961   MPKI: 12.9562
L2C LOAD      ACCESS:     949957  HIT:     841316  MISS:     108641  HIT %:    88.5636  MISS %:    11.4364   MPKI: 2.17282
L2C DATA LOAD MPKI: 1.42832
L2C INSTRUCTION LOAD MPKI: 0.7445
L2C RFO       ACCESS:     280347  HIT:     200745  MISS:      79602  HIT %:    71.6059  MISS %:    28.3941   MPKI: 1.59204
L2C PREFETCH  ACCESS:    3978809  HIT:    3549137  MISS:     429672  HIT %:     89.201  MISS %:     10.799   MPKI: 8.59344
L2C DATA PREFETCH MPKI: 2.05
L2C INSTRUCTION PREFETCH MPKI: 6.54344
L2C WRITEBACK ACCESS:     466881  HIT:     439248  MISS:      27633  HIT %:    94.0814  MISS %:    5.91864   MPKI: 0.55266
L2C LOAD TRANSLATION ACCESS:       3008  HIT:        957  MISS:       2051  HIT %:    31.8152  MISS %:    68.1848   MPKI: 0.04102
L2C TRANSLATION FROM L1D PREFETCHER ACCESS:       5488  HIT:       5277  MISS:        211  HIT %:    96.1552  MISS %:    3.84475   MPKI: 0.00422
L2C PREFETCH  REQUESTED:     474430  ISSUED:     474430  USEFUL:      74805  USELESS:     355076
L2C USEFUL LOAD PREFETCHES:      74805 PREFETCH ISSUED TO LOWER LEVEL:     434863  ACCURACY: 17.202
L2C TIMELY PREFETCHES:      74805 LATE PREFETCHES: 5186 DROPPED PREFETCHES: 0
L2C PREFETCHES SAME FILL-ORIGIN LEVEL: 107686 DIFFERENT FILL-ORIGIN LEVEL: 0
L2C AVERAGE MISS LATENCY: 41.1046 cycles
L2C RQ	ACCESS:    1238814	FORWARD:          0	MERGED:          0	TO_CACHE:    1238800
L2C WQ	ACCESS:     466881	FORWARD:         15	MERGED:          0	TO_CACHE:     466881
L2C PQ	ACCESS:    3989240	FORWARD:          0	MERGED:          0	TO_CACHE:    3989239

L2C Instructions Evicting Data 148694
L2C Translations Evicting Data 1288
L2C Data Evicting Data 120221
L2C Instructions Evicting Instructions 214760
L2C Translations Evicting Instructions 951
L2C Data Evicting Instructions 132021
L2C Instructions Evicting Translations 943
L2C Translations Evicting Translations 23
L2C Data Evicting Translations 1276
L2C Dense regions hint from L2: 0
PSCL5 TOTAL     ACCESS:       5946  HIT:       5946  MISS:          0  HIT %:        100  MISS %:          0   MPKI: 0
PSCL5 LOAD TRANSLATION ACCESS:       2736  HIT:       2736  MISS:          0  HIT %:        100  MISS %:          0   MPKI: 0
PSCL5 TRANSLATION FROM L1D PREFETCHER ACCESS:       3210  HIT:       3210  MISS:          0  HIT %:        100  MISS %:          0   MPKI: 0
PSCL5 PREFETCH  REQUESTED:          0  ISSUED:          0  USEFUL:          0  USELESS:          0
PSCL5 USEFUL LOAD PREFETCHES:          0 PREFETCH ISSUED TO LOWER LEVEL:          0  ACCURACY: -nan
PSCL5 TIMELY PREFETCHES:          0 LATE PREFETCHES: 0 DROPPED PREFETCHES: 0
PSCL5 PREFETCHES SAME FILL-ORIGIN LEVEL: 0 DIFFERENT FILL-ORIGIN LEVEL: 0

PSCL4 TOTAL     ACCESS:       5830  HIT:       5823  MISS:          7  HIT %:    99.8799  MISS %:   0.120069   MPKI: 0.00014
PSCL4 LOAD TRANSLATION ACCESS:       2625  HIT:       2618  MISS:          7  HIT %:    99.7333  MISS %:   0.266667   MPKI: 0.00014
PSCL4 TRANSLATION FROM L1D PREFETCHER ACCESS:       3205  HIT:       3205  MISS:          0  HIT %:        100  MISS %:          0   MPKI: 0
PSCL4 PREFETCH  REQUESTED:          0  ISSUED:          0  USEFUL:          0  USELESS:          0
PSCL4 USEFUL LOAD PREFETCHES:          0 PREFETCH ISSUED TO LOWER LEVEL:          0  ACCURACY: -nan
PSCL4 TIMELY PREFETCHES:          0 LATE PREFETCHES: 0 DROPPED PREFETCHES: 0
PSCL4 PREFETCHES SAME FILL-ORIGIN LEVEL: 0 DIFFERENT FILL-ORIGIN LEVEL: 0

PSCL3 TOTAL     ACCESS:       5921  HIT:       5914  MISS:          7  HIT %:    99.8818  MISS %:   0.118223   MPKI: 0.00014
PSCL3 LOAD TRANSLATION ACCESS:       2716  HIT:       2709  MISS:          7  HIT %:    99.7423  MISS %:   0.257732   MPKI: 0.00014
PSCL3 TRANSLATION FROM L1D PREFETCHER ACCESS:       3205  HIT:       3205  MISS:          0  HIT %:        100  MISS %:          0   MPKI: 0
PSCL3 PREFETCH  REQUESTED:          0  ISSUED:          0  USEFUL:          0  USELESS:          0
PSCL3 USEFUL LOAD PREFETCHES:          0 PREFETCH ISSUED TO LOWER LEVEL:          0  ACCURACY: -nan
PSCL3 TIMELY PREFETCHES:          0 LATE PREFETCHES: 0 DROPPED PREFETCHES: 0
PSCL3 PREFETCHES SAME FILL-ORIGIN LEVEL: 0 DIFFERENT FILL-ORIGIN LEVEL: 0

PSCL2 TOTAL     ACCESS:       3718  HIT:       3419  MISS:        299  HIT %:     91.958  MISS %:    8.04196   MPKI: 0.00598
PSCL2 LOAD TRANSLATION ACCESS:       2776  HIT:       2477  MISS:        299  HIT %:    89.2291  MISS %:    10.7709   MPKI: 0.00598
PSCL2 TRANSLATION FROM L1D PREFETCHER ACCESS:        942  HIT:        942  MISS:          0  HIT %:        100  MISS %:          0   MPKI: 0
PSCL2 PREFETCH  REQUESTED:          0  ISSUED:          0  USEFUL:          0  USELESS:          0
PSCL2 USEFUL LOAD PREFETCHES:          0 PREFETCH ISSUED TO LOWER LEVEL:          0  ACCURACY: -nan
PSCL2 TIMELY PREFETCHES:          0 LATE PREFETCHES: 0 DROPPED PREFETCHES: 0
PSCL2 PREFETCHES SAME FILL-ORIGIN LEVEL: 0 DIFFERENT FILL-ORIGIN LEVEL: 0

LLC TOTAL     ACCESS:     736115  HIT:     694795  MISS:      41320  HIT %:    94.3867  MISS %:    5.61325   MPKI: 0.8264
LLC LOAD      ACCESS:     103536  HIT:      99604  MISS:       3932  HIT %:    96.2023  MISS %:    3.79771   MPKI: 0.07864
LLC RFO       ACCESS:      79520  HIT:      56991  MISS:      22529  HIT %:    71.6688  MISS %:    28.3312   MPKI: 0.45058
LLC PREFETCH  ACCESS:     434857  HIT:     420595  MISS:      14262  HIT %:    96.7203  MISS %:     3.2797   MPKI: 0.28524
LLC WRITEBACK ACCESS:     115940  HIT:     115557  MISS:        383  HIT %:    99.6697  MISS %:   0.330343   MPKI: 0.00766
LLC LOAD TRANSLATION ACCESS:       2051  HIT:       1852  MISS:        199  HIT %:    90.2974  MISS %:    9.70258   MPKI: 0.00398
LLC TRANSLATION FROM L1D PREFETCHER ACCESS:        211  HIT:        196  MISS:         15  HIT %:     92.891  MISS %:      7.109   MPKI: 0.0003
LLC PREFETCH  REQUESTED:          0  ISSUED:          0  USEFUL:       1060  USELESS:      13097
LLC USEFUL LOAD PREFETCHES:       1060 PREFETCH ISSUED TO LOWER LEVEL:      14262  ACCURACY: 7.43234
LLC TIMELY PREFETCHES:       1060 LATE PREFETCHES: 0 DROPPED PREFETCHES: 0
LLC PREFETCHES SAME FILL-ORIGIN LEVEL: 0 DIFFERENT FILL-ORIGIN LEVEL: 0
LLC AVERAGE MISS LATENCY: 198.96 cycles
LLC RQ	ACCESS:     185319	FORWARD:          0	MERGED:          0	TO_CACHE:     185318
LLC WQ	ACCESS:     115940	FORWARD:          2	MERGED:          0	TO_CACHE:     115940
LLC PQ	ACCESS:     434863	FORWARD:          0	MERGED:          0	TO_CACHE:     434862

LLC Dense regions hint to LLC: 0

RAW hits: 908857
Loads Generated: 12470071
Loads sent to L1D: 11561214
Stores Generated: 6771037
Stores sent to L1D: 6771059
Major fault: 0 Minor fault: 2466
Allocated PAGES: 2466
I-Shadow cache 408 bytes
Touched + WorthPF tables 6144 bytes 
MMA filter 174 bytes 
FNL filter 272 bytes 
TOTAL PREFETCHER STORAGE SIZE: 25174 bytes
CPU 0 L1I next line prefetcher final stats
[Bingo] PHT Access: 206506
[Bingo] PHT Hit PC+Addr: 119689
[Bingo] PHT Hit PC+Offs: 18180
[Bingo] PHT Miss: 68637
[Bingo] Prefetch PC+Addr: 0
[Bingo] Prefetch PC+Offs: 0
[Bingo] Useful PC+Addr: 0
[Bingo] Useful PC+Offs: 0
[Bingo] Useless PC+Addr: 0
[Bingo] Useless PC+Offs: 0
[Bingo] L1 Prefetch per Region: 0
[Bingo] L2 Prefetch per Region: 4.45344
[Bingo] L3 Prefetch per Region: 0
[Bingo] No Prefetch per Region: 27.5466
[Bingo] Number of Voters Mean: 8.00528
[Bingo] Number of Voters SD: 10.3067
PHT read accesses: 659533
PHT write accesses: 97160
AT read accesses: 531313
AT write accesses: 596907
FT read accesses: 313320
FT write accesses: 206506
PS read accesses: 285437
PS write accesses: 137869
PHT tag read accesses: 3201942
PHT tag write accesses: 216849
AT tag read accesses: 26141898
AT tag write accesses: 628487
FT tag read accesses: 22570739
FT tag write accesses: 419488
PS tag read accesses: 15940574
PS tag write accesses: 422980

DRAM Statistics
 CHANNEL 0
 RQ ROW_BUFFER_HIT:      16943  ROW_BUFFER_MISS:      23982
 DBUS_CONGESTED:          1
 WQ ROW_BUFFER_HIT:       2084  ROW_BUFFER_MISS:      21883  FULL:          0

 AVG_CONGESTED_CYCLE: 3
 All warmup complete: 2
Channel 0 Bank busy for read cycles: 0
Channel 0 Bank busy for write cycles: 0
Channel 0
Rank 0
0banks busy for read cycles: 75063923
0banks busy for write cycles: 4359
1banks busy for read cycles: 621445
1banks busy for write cycles: 446691
2banks busy for read cycles: 247142
2banks busy for write cycles: 158972
3banks busy for read cycles: 99259
3banks busy for write cycles: 97044
4banks busy for read cycles: 79533
4banks busy for write cycles: 67828
5banks busy for read cycles: 52992
5banks busy for write cycles: 55736
6banks busy for read cycles: 53796
6banks busy for write cycles: 61557
7banks busy for read cycles: 72808
7banks busy for write cycles: 65414
8banks busy for read cycles: 208188
8banks busy for write cycles: 179769

CPU 0 Branch Prediction Accuracy: 99.7477% MPKI: 0.46156 Average ROB Occupancy at Mispredict: 69.4108
Branch types
NOT_BRANCH: 40853615 81.7072%
BRANCH_DIRECT_JUMP: 566815 1.13363%
BRANCH_INDIRECT: 197171 0.394342%
BRANCH_CONDITIONAL: 6308407 12.6168%
BRANCH_DIRECT_CALL: 876400 1.7528%
BRANCH_INDIRECT_CALL: 160491 0.320982%
BRANCH_RETURN: 1036885 2.07377%
BRANCH_OTHER: 0 0%

DRAM PAGES: 1048576
Allocated PAGES: 2466
