Initialize SIGNATURE TABLE
ST_SET: 1
ST_WAY: 16
ST_TAG_BIT: 16
ST_TAG_MASK: ffff

Initialize PATTERN TABLE
PT_SET: 16
PT_WAY: 4
SIG_DELTA_BIT: 7
C_SIG_BIT: 4
C_DELTA_BIT: 4

Initialize PREFETCH FILTER
FILTER_SET: 1024

Initialize PERCEPTRON
PERC_ENTRIES: 4096
PERC_FEATURES: 9

*** ChampSim Multicore Out-of-Order Simulator ***

Warmup Instructions: 50000000
Simulation Instructions: 50000000
Number of CPUs: 1
LLC sets: 2048
LLC ways: 16
Off-chip DRAM Size: 4096 MB Channels: 1 Width: 64-bit Data Rate: 6400 MT/s
CPU 0 runs ../IPC-traces//server_016.champsimtrace.xz
.xz
BTB has LRU replacement policy
ITLB has LRU replacement policy
DTLB has LRU replacement policy
STLB has LRU replacement policy
CPU 0 L1I next line prefetcher
L1I has LRU replacement policy
L1D has LRU replacement policy
Initialize SRRIP state for L2C
Initialize DRRIP state for LLC
Heartbeat CPU 0 instructions: 10000000 cycles: 2875485 heartbeat IPC: 3.47767 cumulative IPC: 3.47767 (Simulation time: 0 hr 3 min 26 sec) 
Heartbeat CPU 0 instructions: 20000000 cycles: 5746360 heartbeat IPC: 3.48326 cumulative IPC: 3.48046 (Simulation time: 0 hr 6 min 7 sec) 
Heartbeat CPU 0 instructions: 30000001 cycles: 8614223 heartbeat IPC: 3.48692 cumulative IPC: 3.48261 (Simulation time: 0 hr 8 min 48 sec) 
Heartbeat CPU 0 instructions: 40000001 cycles: 11767941 heartbeat IPC: 3.17086 cumulative IPC: 3.39907 (Simulation time: 0 hr 10 min 6 sec) 
Heartbeat CPU 0 instructions: 50000002 cycles: 15003405 heartbeat IPC: 3.09075 cumulative IPC: 3.33258 (Simulation time: 0 hr 10 min 54 sec) 

Warmup complete CPU 0 instructions: 50000002 cycles: 15003405 (Simulation time: 0 hr 10 min 54 sec) 

Heartbeat CPU 0 instructions: 60000001 cycles: 29623388 heartbeat IPC: 0.683995 cumulative IPC: 0.683995 (Simulation time: 0 hr 12 min 53 sec) 
Heartbeat CPU 0 instructions: 70000001 cycles: 45355894 heartbeat IPC: 0.635627 cumulative IPC: 0.658925 (Simulation time: 0 hr 15 min 30 sec) 
Heartbeat CPU 0 instructions: 80000001 cycles: 61258208 heartbeat IPC: 0.628839 cumulative IPC: 0.648581 (Simulation time: 0 hr 18 min 4 sec) 
Heartbeat CPU 0 instructions: 90000000 cycles: 76756748 heartbeat IPC: 0.645222 cumulative IPC: 0.647738 (Simulation time: 0 hr 20 min 30 sec) 
Heartbeat CPU 0 instructions: 100000000 cycles: 92515628 heartbeat IPC: 0.634563 cumulative IPC: 0.64506 (Simulation time: 0 hr 23 min 2 sec) 
Finished CPU 0 instructions: 50000000 cycles: 77512224 cumulative IPC: 0.64506 (Simulation time: 0 hr 23 min 2 sec) 

ChampSim completed all CPUs

Region of Interest Statistics

CPU 0 cumulative IPC: 0.64506 instructions: 50000000 cycles: 77512224

CPU 0 Average Load ROB stall cycles: 2.00426e+07
CPU 0 Fraction of times ROB stalled by Loads: 38.1037
CPU 0 Percentage of Load stall cycles in Total stall cycles: 2.85305e+08
Issued all: 28654535
Issued LT all: 22411929
rob_not_full_when_issued_lt_all: 22116500
Issued LT one: 18231821
rob_not_full_when_issued_lt_one: 17975080
FVP critical_dynamic_instances_0: 2527220
FVP unique_critical_ips_0: 5634
 Total stall cycles: 64419831
 Total load stall cycles: 183793172462791
Unique Load IPs: 13820
CPU 0 NUM of IPS identified critical: 0
CPU 0 Num of Load IPs stalling ROB: 0
Threshold modification factor: 0
Trouble in retire width: -nan
MaC = Marked as critical.
lt_50_percent_before_Mac: 0
gt_90_percent_before_Mac: 0
gt_75_percent_before_Mac: 0
gt_50_percent_before_Mac: 0
stall_proportion_bin_same_before_after: 0
stall_proportion_bin_lower_before_after: 0
stall_proportion_bin_upper_before_after: 0
average_stall_proportion_before: -nan
average_stall_proportion_after: -nan
Critical IP stalls, total frequency: 0
Non-critical IP stalls, total frequency: 0
Total Freq all stalling IPs: 0
Critical_IP_Detector_Accuracy_70: 0.000177494
Critical_IP_Detector_Accuracy_80: 0.000177494
Critical_IP_Detector_Accuracy_90: 0.000177494
Critical_IP_Detector_Coverage_70: 1
Critical_IP_Detector_Coverage_80: 1
Critical_IP_Detector_Coverage_90: 1
stat_90_percent_critical_ip_stalls_freq: 616084
stat_90_percent_non_critical_ip_stalls_freq: 18446744073708935532
AVERAGE_ROB_Occupancy_90_Percent_Critical_IP_Stalls: 18.0552
AVERAGE_ROB_Occupancy_90_Percent_Non_Critical_IP_Stalls: 7.45078e-12
Critical_IP_ROB_Stalls_Bucket_0: 0
Non-critical_IP_ROB_Stalls_Bucket_0: 2567598
Critical_IP_ROB_Stalls_Bucket_1: 0
Non-critical_IP_ROB_Stalls_Bucket_1: 599651
Critical_IP_ROB_Stalls_Bucket_2: 0
Non-critical_IP_ROB_Stalls_Bucket_2: 238785
Critical_IP_ROB_Stalls_Bucket_3: 0
Non-critical_IP_ROB_Stalls_Bucket_3: 47933
Critical_IP_ROB_Stalls_Bucket_4: 0
Non-critical_IP_ROB_Stalls_Bucket_4: 15115
Critical_IP_ROB_Stalls_Bucket_5: 0
Non-critical_IP_ROB_Stalls_Bucket_5: 7657
Critical_IP_ROB_Stalls_Bucket_6: 0
Non-critical_IP_ROB_Stalls_Bucket_6: 17422
0 => IPs accounting for >50 percent of stalls, 1 => 55, 2 => 60, 3 => 65 and so on till 90.
percent50: inf num IPs:  1
percent55: inf num IPs: 1
percent60: inf num IPs: 1
percent65: inf num IPs: 1
percent70: inf num IPs: 1
percent75: inf num IPs: 1
percent80: inf num IPs: 1
percent85: inf num IPs: 1
percent90: inf num IPs: 1
Critical_ROB_Stalls_Percent_0_Bucket_0: 610488
Non-critical_ROB_Stalls_Percent_0_Bucket_0: 1957110
Critical_ROB_Stalls_Percent_0_Bucket_1: 1123
Non-critical_ROB_Stalls_Percent_0_Bucket_1: 598528
Critical_ROB_Stalls_Percent_0_Bucket_2: 4473
Non-critical_ROB_Stalls_Percent_0_Bucket_2: 234312
Critical_ROB_Stalls_Percent_0_Bucket_3: 0
Non-critical_ROB_Stalls_Percent_0_Bucket_3: 47933
Critical_ROB_Stalls_Percent_0_Bucket_4: 0
Non-critical_ROB_Stalls_Percent_0_Bucket_4: 15115
Critical_ROB_Stalls_Percent_0_Bucket_5: 0
Non-critical_ROB_Stalls_Percent_0_Bucket_5: 7657
Critical_ROB_Stalls_Percent_0_Bucket_6: 0
Non-critical_ROB_Stalls_Percent_0_Bucket_6: 17422
Critical_ROB_Stalls_Percent_1_Bucket_0: 610488
Non-critical_ROB_Stalls_Percent_1_Bucket_0: 1957110
Critical_ROB_Stalls_Percent_1_Bucket_1: 1123
Non-critical_ROB_Stalls_Percent_1_Bucket_1: 598528
Critical_ROB_Stalls_Percent_1_Bucket_2: 4473
Non-critical_ROB_Stalls_Percent_1_Bucket_2: 234312
Critical_ROB_Stalls_Percent_1_Bucket_3: 0
Non-critical_ROB_Stalls_Percent_1_Bucket_3: 47933
Critical_ROB_Stalls_Percent_1_Bucket_4: 0
Non-critical_ROB_Stalls_Percent_1_Bucket_4: 15115
Critical_ROB_Stalls_Percent_1_Bucket_5: 0
Non-critical_ROB_Stalls_Percent_1_Bucket_5: 7657
Critical_ROB_Stalls_Percent_1_Bucket_6: 0
Non-critical_ROB_Stalls_Percent_1_Bucket_6: 17422
Critical_ROB_Stalls_Percent_2_Bucket_0: 610488
Non-critical_ROB_Stalls_Percent_2_Bucket_0: 1957110
Critical_ROB_Stalls_Percent_2_Bucket_1: 1123
Non-critical_ROB_Stalls_Percent_2_Bucket_1: 598528
Critical_ROB_Stalls_Percent_2_Bucket_2: 4473
Non-critical_ROB_Stalls_Percent_2_Bucket_2: 234312
Critical_ROB_Stalls_Percent_2_Bucket_3: 0
Non-critical_ROB_Stalls_Percent_2_Bucket_3: 47933
Critical_ROB_Stalls_Percent_2_Bucket_4: 0
Non-critical_ROB_Stalls_Percent_2_Bucket_4: 15115
Critical_ROB_Stalls_Percent_2_Bucket_5: 0
Non-critical_ROB_Stalls_Percent_2_Bucket_5: 7657
Critical_ROB_Stalls_Percent_2_Bucket_6: 0
Non-critical_ROB_Stalls_Percent_2_Bucket_6: 17422
Critical_ROB_Stalls_Percent_3_Bucket_0: 610488
Non-critical_ROB_Stalls_Percent_3_Bucket_0: 1957110
Critical_ROB_Stalls_Percent_3_Bucket_1: 1123
Non-critical_ROB_Stalls_Percent_3_Bucket_1: 598528
Critical_ROB_Stalls_Percent_3_Bucket_2: 4473
Non-critical_ROB_Stalls_Percent_3_Bucket_2: 234312
Critical_ROB_Stalls_Percent_3_Bucket_3: 0
Non-critical_ROB_Stalls_Percent_3_Bucket_3: 47933
Critical_ROB_Stalls_Percent_3_Bucket_4: 0
Non-critical_ROB_Stalls_Percent_3_Bucket_4: 15115
Critical_ROB_Stalls_Percent_3_Bucket_5: 0
Non-critical_ROB_Stalls_Percent_3_Bucket_5: 7657
Critical_ROB_Stalls_Percent_3_Bucket_6: 0
Non-critical_ROB_Stalls_Percent_3_Bucket_6: 17422
Critical_ROB_Stalls_Percent_4_Bucket_0: 610488
Non-critical_ROB_Stalls_Percent_4_Bucket_0: 1957110
Critical_ROB_Stalls_Percent_4_Bucket_1: 1123
Non-critical_ROB_Stalls_Percent_4_Bucket_1: 598528
Critical_ROB_Stalls_Percent_4_Bucket_2: 4473
Non-critical_ROB_Stalls_Percent_4_Bucket_2: 234312
Critical_ROB_Stalls_Percent_4_Bucket_3: 0
Non-critical_ROB_Stalls_Percent_4_Bucket_3: 47933
Critical_ROB_Stalls_Percent_4_Bucket_4: 0
Non-critical_ROB_Stalls_Percent_4_Bucket_4: 15115
Critical_ROB_Stalls_Percent_4_Bucket_5: 0
Non-critical_ROB_Stalls_Percent_4_Bucket_5: 7657
Critical_ROB_Stalls_Percent_4_Bucket_6: 0
Non-critical_ROB_Stalls_Percent_4_Bucket_6: 17422
Critical_ROB_Stalls_Percent_5_Bucket_0: 610488
Non-critical_ROB_Stalls_Percent_5_Bucket_0: 1957110
Critical_ROB_Stalls_Percent_5_Bucket_1: 1123
Non-critical_ROB_Stalls_Percent_5_Bucket_1: 598528
Critical_ROB_Stalls_Percent_5_Bucket_2: 4473
Non-critical_ROB_Stalls_Percent_5_Bucket_2: 234312
Critical_ROB_Stalls_Percent_5_Bucket_3: 0
Non-critical_ROB_Stalls_Percent_5_Bucket_3: 47933
Critical_ROB_Stalls_Percent_5_Bucket_4: 0
Non-critical_ROB_Stalls_Percent_5_Bucket_4: 15115
Critical_ROB_Stalls_Percent_5_Bucket_5: 0
Non-critical_ROB_Stalls_Percent_5_Bucket_5: 7657
Critical_ROB_Stalls_Percent_5_Bucket_6: 0
Non-critical_ROB_Stalls_Percent_5_Bucket_6: 17422
Critical_ROB_Stalls_Percent_6_Bucket_0: 610488
Non-critical_ROB_Stalls_Percent_6_Bucket_0: 1957110
Critical_ROB_Stalls_Percent_6_Bucket_1: 1123
Non-critical_ROB_Stalls_Percent_6_Bucket_1: 598528
Critical_ROB_Stalls_Percent_6_Bucket_2: 4473
Non-critical_ROB_Stalls_Percent_6_Bucket_2: 234312
Critical_ROB_Stalls_Percent_6_Bucket_3: 0
Non-critical_ROB_Stalls_Percent_6_Bucket_3: 47933
Critical_ROB_Stalls_Percent_6_Bucket_4: 0
Non-critical_ROB_Stalls_Percent_6_Bucket_4: 15115
Critical_ROB_Stalls_Percent_6_Bucket_5: 0
Non-critical_ROB_Stalls_Percent_6_Bucket_5: 7657
Critical_ROB_Stalls_Percent_6_Bucket_6: 0
Non-critical_ROB_Stalls_Percent_6_Bucket_6: 17422
Critical_ROB_Stalls_Percent_7_Bucket_0: 610488
Non-critical_ROB_Stalls_Percent_7_Bucket_0: 1957110
Critical_ROB_Stalls_Percent_7_Bucket_1: 1123
Non-critical_ROB_Stalls_Percent_7_Bucket_1: 598528
Critical_ROB_Stalls_Percent_7_Bucket_2: 4473
Non-critical_ROB_Stalls_Percent_7_Bucket_2: 234312
Critical_ROB_Stalls_Percent_7_Bucket_3: 0
Non-critical_ROB_Stalls_Percent_7_Bucket_3: 47933
Critical_ROB_Stalls_Percent_7_Bucket_4: 0
Non-critical_ROB_Stalls_Percent_7_Bucket_4: 15115
Critical_ROB_Stalls_Percent_7_Bucket_5: 0
Non-critical_ROB_Stalls_Percent_7_Bucket_5: 7657
Critical_ROB_Stalls_Percent_7_Bucket_6: 0
Non-critical_ROB_Stalls_Percent_7_Bucket_6: 17422
Critical_ROB_Stalls_Percent_8_Bucket_0: 610488
Non-critical_ROB_Stalls_Percent_8_Bucket_0: 1957110
Critical_ROB_Stalls_Percent_8_Bucket_1: 1123
Non-critical_ROB_Stalls_Percent_8_Bucket_1: 598528
Critical_ROB_Stalls_Percent_8_Bucket_2: 4473
Non-critical_ROB_Stalls_Percent_8_Bucket_2: 234312
Critical_ROB_Stalls_Percent_8_Bucket_3: 0
Non-critical_ROB_Stalls_Percent_8_Bucket_3: 47933
Critical_ROB_Stalls_Percent_8_Bucket_4: 0
Non-critical_ROB_Stalls_Percent_8_Bucket_4: 15115
Critical_ROB_Stalls_Percent_8_Bucket_5: 0
Non-critical_ROB_Stalls_Percent_8_Bucket_5: 7657
Critical_ROB_Stalls_Percent_8_Bucket_6: 0
Non-critical_ROB_Stalls_Percent_8_Bucket_6: 17422
Average ROB occupancy Load Stall Begin: 34.6099
Average ROB occupancy Load Stall End: 42.5184
Min ROB occupancy Load Stall Begin: 1
Max ROB occupancy Load Stall Begin: 352
Min ROB occupancy Load Stall End: 1
Max ROB occupancy Load Stall End: 352
Average ROB occupancy Critical Load Stall Begin: -nan
Average ROB occupancy Critical Load Stall End: -nan
Min ROB occupancy Critical Load Stall Begin: 400
Max ROB occupancy Critical Load Stall Begin: 0
Min ROB occupancy Critical Load Stall End: 400
Max ROB occupancy Critical Load Stall End: 0
 ROB Load Stall Begin Bucket Count 0: 2764649
 ROB Load Stall End Bucket Count 0: 2567598
 ROB Critical Load Stall Begin Bucket Count 0: 0
 ROB Critical Load Stall End Bucket Count 0: 0
 ROB Load Stall Begin Bucket Count 1: 480416
 ROB Load Stall End Bucket Count 1: 599651
 ROB Critical Load Stall Begin Bucket Count 1: 0
 ROB Critical Load Stall End Bucket Count 1: 0
 ROB Load Stall Begin Bucket Count 2: 180080
 ROB Load Stall End Bucket Count 2: 238785
 ROB Critical Load Stall Begin Bucket Count 2: 0
 ROB Critical Load Stall End Bucket Count 2: 0
 ROB Load Stall Begin Bucket Count 3: 33096
 ROB Load Stall End Bucket Count 3: 47933
 ROB Critical Load Stall Begin Bucket Count 3: 0
 ROB Critical Load Stall End Bucket Count 3: 0
 ROB Load Stall Begin Bucket Count 4: 12335
 ROB Load Stall End Bucket Count 4: 15115
 ROB Critical Load Stall Begin Bucket Count 4: 0
 ROB Critical Load Stall End Bucket Count 4: 0
 ROB Load Stall Begin Bucket Count 5: 7021
 ROB Load Stall End Bucket Count 5: 7657
 ROB Critical Load Stall Begin Bucket Count 5: 0
 ROB Critical Load Stall End Bucket Count 5: 0
 ROB Load Stall Begin Bucket Count 6: 16565
 ROB Load Stall End Bucket Count 6: 17422
 ROB Critical Load Stall Begin Bucket Count 6: 0
 ROB Critical Load Stall End Bucket Count 6: 0
PIST Tag Read Accesses: 0
PIST Read Accesses: 0
PIST Tag Write Accesses: 0
PIST Write Accesses: 0
Criticality detector called times: 0
Max global_stall_cycles_count: 0
Threshold Modified: 0 times, factor: 0
ITLB TOTAL     ACCESS:   10307787  HIT:    9791725  MISS:     516062  HIT %:    94.9935  MISS %:    5.00653   MPKI: 10.3212
ITLB LOAD TRANSLATION ACCESS:    8796065  HIT:    8720529  MISS:      75536  HIT %:    99.1413  MISS %:   0.858748   MPKI: 1.51072
ITLB TRANSLATION FROM L1D PREFETCHER ACCESS:    1511722  HIT:    1071196  MISS:     440526  HIT %:    70.8593  MISS %:    29.1407   MPKI: 8.81052
ITLB PREFETCH  REQUESTED:          0  ISSUED:          0  USEFUL:     345064  USELESS:      95470
ITLB USEFUL LOAD PREFETCHES:     345064 PREFETCH ISSUED TO LOWER LEVEL:          0  ACCURACY: inf
ITLB TIMELY PREFETCHES:     345064 LATE PREFETCHES: 278 DROPPED PREFETCHES: 3120
ITLB PREFETCHES SAME FILL-ORIGIN LEVEL: 0 DIFFERENT FILL-ORIGIN LEVEL: 0
ITLB AVERAGE MISS LATENCY: 32374.3 cycles
ITLB RQ	ACCESS:   14198908	FORWARD:          0	MERGED:    3855560	TO_CACHE:   10343348

DTLB TOTAL     ACCESS:   10188208  HIT:    9804534  MISS:     383674  HIT %:    96.2341  MISS %:    3.76586   MPKI: 7.67348
DTLB LOAD TRANSLATION ACCESS:   10188208  HIT:    9804534  MISS:     383674  HIT %:    96.2341  MISS %:    3.76586   MPKI: 7.67348
DTLB PREFETCH  REQUESTED:          0  ISSUED:          0  USEFUL:          0  USELESS:          0
DTLB USEFUL LOAD PREFETCHES:          0 PREFETCH ISSUED TO LOWER LEVEL:          0  ACCURACY: -nan
DTLB TIMELY PREFETCHES:          0 LATE PREFETCHES: 0 DROPPED PREFETCHES: 0
DTLB PREFETCHES SAME FILL-ORIGIN LEVEL: 0 DIFFERENT FILL-ORIGIN LEVEL: 0
DTLB AVERAGE MISS LATENCY: 9.37755 cycles
DTLB RQ	ACCESS:   13095809	FORWARD:          0	MERGED:    2885730	TO_CACHE:   10210079

STLB TOTAL     ACCESS:     899736  HIT:     897704  MISS:       2032  HIT %:    99.7742  MISS %:   0.225844   MPKI: 0.04064
STLB LOAD TRANSLATION ACCESS:     458932  HIT:     457055  MISS:       1877  HIT %:     99.591  MISS %:   0.408993   MPKI: 0.03754
STLB TRANSLATION FROM L1D PREFETCHER ACCESS:     440804  HIT:     440649  MISS:        155  HIT %:    99.9648  MISS %:   0.035163   MPKI: 0.0031
STLB PREFETCH  REQUESTED:          0  ISSUED:          0  USEFUL:        139  USELESS:         16
STLB USEFUL LOAD PREFETCHES:        139 PREFETCH ISSUED TO LOWER LEVEL:          0  ACCURACY: inf
STLB TIMELY PREFETCHES:        139 LATE PREFETCHES: 0 DROPPED PREFETCHES: 3120
STLB PREFETCHES SAME FILL-ORIGIN LEVEL: 0 DIFFERENT FILL-ORIGIN LEVEL: 0
STLB AVERAGE MISS LATENCY: 76.1304 cycles
STLB RQ	ACCESS:     902856	FORWARD:          0	MERGED:          0	TO_CACHE:     902856

STLB Hit, L1D data hit: 0
STLB Hit, L2C data hit: 0
STLB Hit, LLC data hit: 0
STLB Hit, LLC data miss: 0
STLB STLB hints to L2: 0
L1D TOTAL     ACCESS:   12693808  HIT:   11865285  MISS:     828523  HIT %:     93.473  MISS %:    6.52699   MPKI: 16.5705
L1D LOAD      ACCESS:    7421704  HIT:    6820784  MISS:     600920  HIT %:    91.9032  MISS %:    8.09679   MPKI: 12.0184
L1D RFO       ACCESS:    5272104  HIT:    5044501  MISS:     227603  HIT %:    95.6829  MISS %:    4.31712   MPKI: 4.55206
L1D PREFETCH  REQUESTED:          0  ISSUED:          0  USEFUL:          0  USELESS:          0
L1D USEFUL LOAD PREFETCHES:          0 PREFETCH ISSUED TO LOWER LEVEL:          0  ACCURACY: -nan
L1D TIMELY PREFETCHES:          0 LATE PREFETCHES: 0 DROPPED PREFETCHES: 0
L1D PREFETCHES SAME FILL-ORIGIN LEVEL: 0 DIFFERENT FILL-ORIGIN LEVEL: 0
L1D AVERAGE MISS LATENCY: 24.5485 cycles
L1D RQ	ACCESS:   10332349	FORWARD:          0	MERGED:    2772193	TO_CACHE:    7453451
L1D WQ	ACCESS:    5697707	FORWARD:     106705	MERGED:      55349	TO_CACHE:    5642358

L1D UNIQUE REGIONS ACCESSED: 0
L1D REGIONS CONFLICTS: 0
L1D Cross Page Prefetch Requests: 0
L1D Same Page Prefetch Requests: 0
L1D ROI Sum of L1D PQ occupancy: 0
L1D PREFETCHES PUSHED FROM L2C: 0
L1I TOTAL     ACCESS:   14076717  HIT:   10959697  MISS:    3117020  HIT %:    77.8569  MISS %:    22.1431   MPKI: 62.3404
L1I LOAD      ACCESS:    9938402  HIT:    9710162  MISS:     228240  HIT %:    97.7035  MISS %:    2.29655   MPKI: 4.5648
L1I PREFETCH  ACCESS:    4138315  HIT:    1249535  MISS:    2888780  HIT %:    30.1943  MISS %:    69.8057   MPKI: 57.7756
L1I PREFETCH  REQUESTED:    4341663  ISSUED:    4330854  USEFUL:    1952383  USELESS:     936335
L1I USEFUL LOAD PREFETCHES:    1952383 PREFETCH ISSUED TO LOWER LEVEL:    2914266  ACCURACY: 66.994
L1I TIMELY PREFETCHES:    1952383 LATE PREFETCHES: 25451 DROPPED PREFETCHES: 7570
L1I PREFETCHES SAME FILL-ORIGIN LEVEL: 2914266 DIFFERENT FILL-ORIGIN LEVEL: 0
L1I AVERAGE MISS LATENCY: 488457 cycles
L1I RQ	ACCESS:   13362772	FORWARD:          0	MERGED:    3404331	TO_CACHE:    9958441
L1I PQ	ACCESS:    4330854	FORWARD:          0	MERGED:      90387	TO_CACHE:    4240467

BTB TOTAL     ACCESS:    6534034  HIT:    5095597  MISS:    1438437  HIT %:    77.9855  MISS %:    22.0145   MPKI: 28.7687
BTB BRANCH_DIRECT_JUMP	ACCESS:     487044  HIT:     364834  MISS:     122210
BTB BRANCH_INDIRECT	ACCESS:     169158  HIT:     142414  MISS:      26744
BTB BRANCH_CONDITIONAL	ACCESS:    4098719  HIT:    3717570  MISS:     381149
BTB BRANCH_DIRECT_CALL	ACCESS:     755585  HIT:     471450  MISS:     284135
BTB BRANCH_INDIRECT_CALL	ACCESS:     133962  HIT:      76124  MISS:      57838
BTB BRANCH_RETURN	ACCESS:     889566  HIT:     323205  MISS:     566361
BTB BRANCH_OTHER ACCESS:          0  HIT:          0  MISS:          0

L2C TOTAL     ACCESS:    4433328  HIT:    3978814  MISS:     454514  HIT %:    89.7478  MISS %:    10.2522   MPKI: 9.09028
L2C LOAD      ACCESS:     803661  HIT:     677743  MISS:     125918  HIT %:     84.332  MISS %:     15.668   MPKI: 2.51836
L2C DATA LOAD MPKI: 1.93736
L2C INSTRUCTION LOAD MPKI: 0.581
L2C RFO       ACCESS:     227597  HIT:     175449  MISS:      52148  HIT %:    77.0876  MISS %:    22.9124   MPKI: 1.04296
L2C PREFETCH  ACCESS:    3008162  HIT:    2752812  MISS:     255350  HIT %:    91.5114  MISS %:    8.48857   MPKI: 5.107
L2C DATA PREFETCH MPKI: 0.47946
L2C INSTRUCTION PREFETCH MPKI: 4.62754
L2C WRITEBACK ACCESS:     386404  HIT:     367139  MISS:      19265  HIT %:    95.0143  MISS %:    4.98571   MPKI: 0.3853
L2C LOAD TRANSLATION ACCESS:       2102  HIT:        544  MISS:       1558  HIT %:    25.8801  MISS %:    74.1199   MPKI: 0.03116
L2C TRANSLATION FROM L1D PREFETCHER ACCESS:       5402  HIT:       5127  MISS:        275  HIT %:    94.9093  MISS %:    5.09071   MPKI: 0.0055
L2C PREFETCH  REQUESTED:     120172  ISSUED:     120168  USEFUL:      21109  USELESS:     233022
L2C USEFUL LOAD PREFETCHES:      21109 PREFETCH ISSUED TO LOWER LEVEL:     278187  ACCURACY: 7.58806
L2C TIMELY PREFETCHES:      21109 LATE PREFETCHES: 6561 DROPPED PREFETCHES: 0
L2C PREFETCHES SAME FILL-ORIGIN LEVEL: 30534 DIFFERENT FILL-ORIGIN LEVEL: 16276
L2C AVERAGE MISS LATENCY: 38.7966 cycles
L2C RQ	ACCESS:    1038816	FORWARD:          0	MERGED:          0	TO_CACHE:    1038762
L2C WQ	ACCESS:     386404	FORWARD:         54	MERGED:          0	TO_CACHE:     386404
L2C PQ	ACCESS:    3034402	FORWARD:          0	MERGED:       1400	TO_CACHE:    3033002

L2C Instructions Evicting Data 103569
L2C Translations Evicting Data 1120
L2C Data Evicting Data 81527
L2C Instructions Evicting Instructions 156131
L2C Translations Evicting Instructions 691
L2C Data Evicting Instructions 90375
L2C Instructions Evicting Translations 727
L2C Translations Evicting Translations 22
L2C Data Evicting Translations 1087
L2C Dense regions hint from L2: 0
PSCL5 TOTAL     ACCESS:       5152  HIT:       5152  MISS:          0  HIT %:        100  MISS %:          0   MPKI: 0
PSCL5 LOAD TRANSLATION ACCESS:       1877  HIT:       1877  MISS:          0  HIT %:        100  MISS %:          0   MPKI: 0
PSCL5 TRANSLATION FROM L1D PREFETCHER ACCESS:       3275  HIT:       3275  MISS:          0  HIT %:        100  MISS %:          0   MPKI: 0
PSCL5 PREFETCH  REQUESTED:          0  ISSUED:          0  USEFUL:          0  USELESS:          0
PSCL5 USEFUL LOAD PREFETCHES:          0 PREFETCH ISSUED TO LOWER LEVEL:          0  ACCURACY: -nan
PSCL5 TIMELY PREFETCHES:          0 LATE PREFETCHES: 0 DROPPED PREFETCHES: 0
PSCL5 PREFETCHES SAME FILL-ORIGIN LEVEL: 0 DIFFERENT FILL-ORIGIN LEVEL: 0

PSCL4 TOTAL     ACCESS:       4839  HIT:       4827  MISS:         12  HIT %:     99.752  MISS %:   0.247985   MPKI: 0.00024
PSCL4 LOAD TRANSLATION ACCESS:       1660  HIT:       1648  MISS:         12  HIT %:    99.2771  MISS %:   0.722892   MPKI: 0.00024
PSCL4 TRANSLATION FROM L1D PREFETCHER ACCESS:       3179  HIT:       3179  MISS:          0  HIT %:        100  MISS %:          0   MPKI: 0
PSCL4 PREFETCH  REQUESTED:          0  ISSUED:          0  USEFUL:          0  USELESS:          0
PSCL4 USEFUL LOAD PREFETCHES:          0 PREFETCH ISSUED TO LOWER LEVEL:          0  ACCURACY: -nan
PSCL4 TIMELY PREFETCHES:          0 LATE PREFETCHES: 0 DROPPED PREFETCHES: 0
PSCL4 PREFETCHES SAME FILL-ORIGIN LEVEL: 0 DIFFERENT FILL-ORIGIN LEVEL: 0

PSCL3 TOTAL     ACCESS:       5013  HIT:       5001  MISS:         12  HIT %:    99.7606  MISS %:   0.239378   MPKI: 0.00024
PSCL3 LOAD TRANSLATION ACCESS:       1834  HIT:       1822  MISS:         12  HIT %:    99.3457  MISS %:   0.654308   MPKI: 0.00024
PSCL3 TRANSLATION FROM L1D PREFETCHER ACCESS:       3179  HIT:       3179  MISS:          0  HIT %:        100  MISS %:          0   MPKI: 0
PSCL3 PREFETCH  REQUESTED:          0  ISSUED:          0  USEFUL:          0  USELESS:          0
PSCL3 USEFUL LOAD PREFETCHES:          0 PREFETCH ISSUED TO LOWER LEVEL:          0  ACCURACY: -nan
PSCL3 TIMELY PREFETCHES:          0 LATE PREFETCHES: 0 DROPPED PREFETCHES: 0
PSCL3 PREFETCHES SAME FILL-ORIGIN LEVEL: 0 DIFFERENT FILL-ORIGIN LEVEL: 0

PSCL2 TOTAL     ACCESS:       3199  HIT:       2958  MISS:        241  HIT %:    92.4664  MISS %:     7.5336   MPKI: 0.00482
PSCL2 LOAD TRANSLATION ACCESS:       1911  HIT:       1670  MISS:        241  HIT %:    87.3888  MISS %:    12.6112   MPKI: 0.00482
PSCL2 TRANSLATION FROM L1D PREFETCHER ACCESS:       1288  HIT:       1288  MISS:          0  HIT %:        100  MISS %:          0   MPKI: 0
PSCL2 PREFETCH  REQUESTED:          0  ISSUED:          0  USEFUL:          0  USELESS:          0
PSCL2 USEFUL LOAD PREFETCHES:          0 PREFETCH ISSUED TO LOWER LEVEL:          0  ACCURACY: -nan
PSCL2 TIMELY PREFETCHES:          0 LATE PREFETCHES: 0 DROPPED PREFETCHES: 0
PSCL2 PREFETCHES SAME FILL-ORIGIN LEVEL: 0 DIFFERENT FILL-ORIGIN LEVEL: 0

LLC TOTAL     ACCESS:     527473  HIT:     495570  MISS:      31903  HIT %:    93.9517  MISS %:    6.04827   MPKI: 0.63806
LLC LOAD      ACCESS:     119359  HIT:     112948  MISS:       6411  HIT %:    94.6288  MISS %:    5.37119   MPKI: 0.12822
LLC RFO       ACCESS:      52143  HIT:      37591  MISS:      14552  HIT %:    72.0921  MISS %:    27.9079   MPKI: 0.29104
LLC PREFETCH  ACCESS:     277939  HIT:     267497  MISS:      10442  HIT %:    96.2431  MISS %:    3.75694   MPKI: 0.20884
LLC WRITEBACK ACCESS:      76199  HIT:      75833  MISS:        366  HIT %:    99.5197  MISS %:   0.480321   MPKI: 0.00732
LLC LOAD TRANSLATION ACCESS:       1558  HIT:       1444  MISS:        114  HIT %:    92.6829  MISS %:    7.31707   MPKI: 0.00228
LLC TRANSLATION FROM L1D PREFETCHER ACCESS:        275  HIT:        257  MISS:         18  HIT %:    93.4545  MISS %:    6.54545   MPKI: 0.00036
LLC PREFETCH  REQUESTED:          0  ISSUED:          0  USEFUL:        434  USELESS:       5346
LLC USEFUL LOAD PREFETCHES:        434 PREFETCH ISSUED TO LOWER LEVEL:      10466  ACCURACY: 4.14676
LLC TIMELY PREFETCHES:        434 LATE PREFETCHES: 24 DROPPED PREFETCHES: 0
LLC PREFETCHES SAME FILL-ORIGIN LEVEL: 2442 DIFFERENT FILL-ORIGIN LEVEL: 0
LLC AVERAGE MISS LATENCY: 161.043 cycles
LLC RQ	ACCESS:     173338	FORWARD:          0	MERGED:          0	TO_CACHE:     173335
LLC WQ	ACCESS:      76199	FORWARD:          3	MERGED:          0	TO_CACHE:      76199
LLC PQ	ACCESS:     278187	FORWARD:          0	MERGED:        112	TO_CACHE:     278075

LLC Dense regions hint to LLC: 0

RAW hits: 799961
Loads Generated: 11132312
Loads sent to L1D: 10332349
Stores Generated: 5697707
Stores sent to L1D: 5697707
Major fault: 0 Minor fault: 2472
Allocated PAGES: 2472
I-Shadow cache 408 bytes
Touched + WorthPF tables 6144 bytes 
MMA filter 174 bytes 
FNL filter 272 bytes 
TOTAL PREFETCHER STORAGE SIZE: 25174 bytes
CPU 0 L1I next line prefetcher final stats
------------------
Depth Distribution
------------------
depth 0: 48643
depth 1: 12064
depth 2: 18528
depth 3: 26570
depth 4: 17611
depth 5: 22994
depth 6: 7399
depth 7: 746
depth 8: 520
depth 9: 538
depth 10: 145
depth 11: 916
depth 12: 555
depth 13: 148
depth 14: 318
depth 15: 7
depth 16: 5
depth 17: 0
depth 18: 0
depth 19: 0
depth 20: 0
depth 21: 0
depth 22: 0
depth 23: 0
depth 24: 0
depth 25: 0
depth 26: 0
depth 27: 0
depth 28: 0
depth 29: 0
Total: 157707
------------------
ST read accesses: 95775
ST write accesses: 45587
PT read accesses: 2766971
PT write accesses: 129583
FILTER read accesses: 1307944
FILTER write accesses: 1202605
GHR read accesses: 481368
GHR write accesses: 19703
PERC read accesses: 19742103
PERC write accesses: 1165930
GHR counter read accesses: 282724
GHR counter write accesses: 315861
GHR ip read accesses: 1103952
GHR ip write accesses: 565448
ST tag read accesses: 4921425
ST tag write accesses: 858563

DRAM Statistics
 CHANNEL 0
 RQ ROW_BUFFER_HIT:      10437  ROW_BUFFER_MISS:      21094
 DBUS_CONGESTED:         60
 WQ ROW_BUFFER_HIT:       1502  ROW_BUFFER_MISS:      14364  FULL:          0

 AVG_CONGESTED_CYCLE: 4
 All warmup complete: 2
Channel 0 Bank busy for read cycles: 0
Channel 0 Bank busy for write cycles: 0
Channel 0
Rank 0
0banks busy for read cycles: 74662463
0banks busy for write cycles: 3978
1banks busy for read cycles: 1101068
1banks busy for write cycles: 514624
2banks busy for read cycles: 268700
2banks busy for write cycles: 160903
3banks busy for read cycles: 136144
3banks busy for write cycles: 91472
4banks busy for read cycles: 90388
4banks busy for write cycles: 61546
5banks busy for read cycles: 46086
5banks busy for write cycles: 50410
6banks busy for read cycles: 34022
6banks busy for write cycles: 50785
7banks busy for read cycles: 34307
7banks busy for write cycles: 46174
8banks busy for read cycles: 78224
8banks busy for write cycles: 80931

CPU 0 Branch Prediction Accuracy: 99.7225% MPKI: 0.50376 Average ROB Occupancy at Mispredict: 59.282
Branch types
NOT_BRANCH: 40923872 81.8477%
BRANCH_DIRECT_JUMP: 487044 0.974088%
BRANCH_INDIRECT: 169158 0.338316%
BRANCH_CONDITIONAL: 6640823 13.2816%
BRANCH_DIRECT_CALL: 755585 1.51117%
BRANCH_INDIRECT_CALL: 133962 0.267924%
BRANCH_RETURN: 889566 1.77913%
BRANCH_OTHER: 0 0%

DRAM PAGES: 1048576
Allocated PAGES: 2472
