
*** ChampSim Multicore Out-of-Order Simulator ***

Warmup Instructions: 50000000
Simulation Instructions: 50000000
Number of CPUs: 1
LLC sets: 2048
LLC ways: 16
Off-chip DRAM Size: 4096 MB Channels: 1 Width: 64-bit Data Rate: 6400 MT/s
CPU 0 runs ../IPC-traces//server_016.champsimtrace.xz
.xz
NUM_OF_IPS_IN_CRITICAL_IP_TRAINING: 64
NUM_OF_CRITICAL_IP_TRAINING_TABLE_WAYS: 2
NUM_OF_CRITICAL_IP_TRAINING_TABLE_SETS: 32
WOBBLY_CRITICAL_IP_CACHE_SETS: 32
WOBBLY_CRITICAL_IP_CACHE_WAYS: 4
BTB has LRU replacement policy
ITLB has LRU replacement policy
DTLB has LRU replacement policy
STLB has LRU replacement policy
CPU 0 L1I next line prefetcher
L1I has LRU replacement policy
IP Table Entries: 256
L1D has LRU replacement policy
Initialize SRRIP state for L2C
Initialize DRRIP state for LLC
Heartbeat CPU 0 instructions: 10000000 cycles: 2874318 heartbeat IPC: 3.47909 cumulative IPC: 3.47909 (Simulation time: 0 hr 2 min 34 sec) 
Heartbeat CPU 0 instructions: 20000000 cycles: 5744042 heartbeat IPC: 3.48466 cumulative IPC: 3.48187 (Simulation time: 0 hr 5 min 9 sec) 
Heartbeat CPU 0 instructions: 30000001 cycles: 8610752 heartbeat IPC: 3.48832 cumulative IPC: 3.48402 (Simulation time: 0 hr 7 min 46 sec) 
Heartbeat CPU 0 instructions: 40000001 cycles: 11764268 heartbeat IPC: 3.17106 cumulative IPC: 3.40013 (Simulation time: 0 hr 9 min 17 sec) 
Heartbeat CPU 0 instructions: 50000002 cycles: 14999732 heartbeat IPC: 3.09075 cumulative IPC: 3.33339 (Simulation time: 0 hr 10 min 30 sec) 

Warmup complete CPU 0 instructions: 50000002 cycles: 14999732 (Simulation time: 0 hr 10 min 30 sec) 

% increase in all ip prefetch 344.294
% increase in all ip prefetch -0.0090097
Heartbeat CPU 0 instructions: 60000001 cycles: 29626334 heartbeat IPC: 0.683686 cumulative IPC: 0.683686 (Simulation time: 0 hr 12 min 44 sec) 
Heartbeat CPU 0 instructions: 70000001 cycles: 45380540 heartbeat IPC: 0.634751 cumulative IPC: 0.65831 (Simulation time: 0 hr 15 min 10 sec) 
Heartbeat CPU 0 instructions: 80000000 cycles: 61295631 heartbeat IPC: 0.628334 cumulative IPC: 0.648006 (Simulation time: 0 hr 17 min 36 sec) 
Heartbeat CPU 0 instructions: 90000000 cycles: 76785196 heartbeat IPC: 0.645596 cumulative IPC: 0.647401 (Simulation time: 0 hr 20 min 3 sec) 
Heartbeat CPU 0 instructions: 100000000 cycles: 92514562 heartbeat IPC: 0.635754 cumulative IPC: 0.645038 (Simulation time: 0 hr 22 min 30 sec) 
Finished CPU 0 instructions: 50000000 cycles: 77514831 cumulative IPC: 0.645038 (Simulation time: 0 hr 22 min 30 sec) 

ChampSim completed all CPUs

Region of Interest Statistics

CPU 0 cumulative IPC: 0.645038 instructions: 50000000 cycles: 77514831

CPU 0 Average Load ROB stall cycles: 2.00078e+07
CPU 0 Fraction of times ROB stalled by Loads: 38.0605
CPU 0 Percentage of Load stall cycles in Total stall cycles: 2.83722e+08
Issued all: 28655820
Issued LT all: 22415823
rob_not_full_when_issued_lt_all: 22107596
Issued LT one: 18230586
rob_not_full_when_issued_lt_one: 17962545
critical_ip_candidate_identification_operations: 6956338
critical_ip_candidate_identification_operation_per_cycle: 0.089742
 Total stall cycles: 64444235
 Total load stall cycles: 182842345157640
Unique Load IPs: 13820
CPU 0 NUM of IPS identified critical: 18
CPU 0 Num of Load IPs stalling ROB: 12077
Threshold modification factor: -1
Max PIST entries: 64
Min PIST entries: 0
Avg PIST entries: 29.7
Trouble in retire width: 0.880617
MaC = Marked as critical.
lt_50_percent_before_Mac: 18
gt_90_percent_before_Mac: 0
gt_75_percent_before_Mac: 0
gt_50_percent_before_Mac: 0
stall_proportion_bin_same_before_after: 0
stall_proportion_bin_lower_before_after: 0
stall_proportion_bin_upper_before_after: 0
average_stall_proportion_before: 0.0763914
average_stall_proportion_after: 0.0760353
Critical IP stalls, total frequency: 812688
Non-critical IP stalls, total frequency: 2665481
Total Freq all stalling IPs: 3478169
Critical_IP_Detector_Accuracy_70: 1
Critical_IP_Detector_Accuracy_80: 1
Critical_IP_Detector_Accuracy_90: 1
Critical_IP_Detector_Coverage_70: 0.0174757
Critical_IP_Detector_Coverage_80: 0.00983069
Critical_IP_Detector_Coverage_90: 0.00581771
stat_90_percent_critical_ip_stalls_freq: 3130358
stat_90_percent_non_critical_ip_stalls_freq: 347811
AVERAGE_ROB_Occupancy_90_Percent_Critical_IP_Stalls: 44.3012
AVERAGE_ROB_Occupancy_90_Percent_Non_Critical_IP_Stalls: 27.7547
Critical_IP_ROB_Stalls_Bucket_0: 631261
Non-critical_IP_ROB_Stalls_Bucket_0: 1916936
Critical_IP_ROB_Stalls_Bucket_1: 72447
Non-critical_IP_ROB_Stalls_Bucket_1: 532186
Critical_IP_ROB_Stalls_Bucket_2: 70285
Non-critical_IP_ROB_Stalls_Bucket_2: 168341
Critical_IP_ROB_Stalls_Bucket_3: 12595
Non-critical_IP_ROB_Stalls_Bucket_3: 33701
Critical_IP_ROB_Stalls_Bucket_4: 5435
Non-critical_IP_ROB_Stalls_Bucket_4: 9818
Critical_IP_ROB_Stalls_Bucket_5: 5125
Non-critical_IP_ROB_Stalls_Bucket_5: 2377
Critical_IP_ROB_Stalls_Bucket_6: 15540
Non-critical_IP_ROB_Stalls_Bucket_6: 2122
0 => IPs accounting for >50 percent of stalls, 1 => 55, 2 => 60, 3 => 65 and so on till 90.
percent50: 50.0295 num IPs:  167
percent55: 55.0085 num IPs: 288
percent60: 60.0032 num IPs: 468
percent65: 65.0089 num IPs: 719
percent70: 70.0027 num IPs: 1030
percent75: 75.0129 num IPs: 1385
percent80: 80.0022 num IPs: 1831
percent85: 85.0004 num IPs: 2420
percent90: 90.0001 num IPs: 3094
Critical_ROB_Stalls_Percent_0_Bucket_0: 1193466
Non-critical_ROB_Stalls_Percent_0_Bucket_0: 1354731
Critical_ROB_Stalls_Percent_0_Bucket_1: 322241
Non-critical_ROB_Stalls_Percent_0_Bucket_1: 282392
Critical_ROB_Stalls_Percent_0_Bucket_2: 163024
Non-critical_ROB_Stalls_Percent_0_Bucket_2: 75602
Critical_ROB_Stalls_Percent_0_Bucket_3: 31823
Non-critical_ROB_Stalls_Percent_0_Bucket_3: 14473
Critical_ROB_Stalls_Percent_0_Bucket_4: 8369
Non-critical_ROB_Stalls_Percent_0_Bucket_4: 6884
Critical_ROB_Stalls_Percent_0_Bucket_5: 5618
Non-critical_ROB_Stalls_Percent_0_Bucket_5: 1884
Critical_ROB_Stalls_Percent_0_Bucket_6: 15567
Non-critical_ROB_Stalls_Percent_0_Bucket_6: 2095
Critical_ROB_Stalls_Percent_1_Bucket_0: 1279869
Non-critical_ROB_Stalls_Percent_1_Bucket_0: 1268328
Critical_ROB_Stalls_Percent_1_Bucket_1: 375076
Non-critical_ROB_Stalls_Percent_1_Bucket_1: 229557
Critical_ROB_Stalls_Percent_1_Bucket_2: 187812
Non-critical_ROB_Stalls_Percent_1_Bucket_2: 50814
Critical_ROB_Stalls_Percent_1_Bucket_3: 37826
Non-critical_ROB_Stalls_Percent_1_Bucket_3: 8470
Critical_ROB_Stalls_Percent_1_Bucket_4: 10328
Non-critical_ROB_Stalls_Percent_1_Bucket_4: 4925
Critical_ROB_Stalls_Percent_1_Bucket_5: 6282
Non-critical_ROB_Stalls_Percent_1_Bucket_5: 1220
Critical_ROB_Stalls_Percent_1_Bucket_6: 16096
Non-critical_ROB_Stalls_Percent_1_Bucket_6: 1566
Critical_ROB_Stalls_Percent_2_Bucket_0: 1402272
Non-critical_ROB_Stalls_Percent_2_Bucket_0: 1145925
Critical_ROB_Stalls_Percent_2_Bucket_1: 410498
Non-critical_ROB_Stalls_Percent_2_Bucket_1: 194135
Critical_ROB_Stalls_Percent_2_Bucket_2: 198588
Non-critical_ROB_Stalls_Percent_2_Bucket_2: 40038
Critical_ROB_Stalls_Percent_2_Bucket_3: 39704
Non-critical_ROB_Stalls_Percent_2_Bucket_3: 6592
Critical_ROB_Stalls_Percent_2_Bucket_4: 13042
Non-critical_ROB_Stalls_Percent_2_Bucket_4: 2211
Critical_ROB_Stalls_Percent_2_Bucket_5: 6634
Non-critical_ROB_Stalls_Percent_2_Bucket_5: 868
Critical_ROB_Stalls_Percent_2_Bucket_6: 16275
Non-critical_ROB_Stalls_Percent_2_Bucket_6: 1387
Critical_ROB_Stalls_Percent_3_Bucket_0: 1525035
Non-critical_ROB_Stalls_Percent_3_Bucket_0: 1023162
Critical_ROB_Stalls_Percent_3_Bucket_1: 448563
Non-critical_ROB_Stalls_Percent_3_Bucket_1: 156070
Critical_ROB_Stalls_Percent_3_Bucket_2: 208763
Non-critical_ROB_Stalls_Percent_3_Bucket_2: 29863
Critical_ROB_Stalls_Percent_3_Bucket_3: 41542
Non-critical_ROB_Stalls_Percent_3_Bucket_3: 4754
Critical_ROB_Stalls_Percent_3_Bucket_4: 13695
Non-critical_ROB_Stalls_Percent_3_Bucket_4: 1558
Critical_ROB_Stalls_Percent_3_Bucket_5: 6700
Non-critical_ROB_Stalls_Percent_3_Bucket_5: 802
Critical_ROB_Stalls_Percent_3_Bucket_6: 16823
Non-critical_ROB_Stalls_Percent_3_Bucket_6: 839
Critical_ROB_Stalls_Percent_4_Bucket_0: 1662636
Non-critical_ROB_Stalls_Percent_4_Bucket_0: 885561
Critical_ROB_Stalls_Percent_4_Bucket_1: 478847
Non-critical_ROB_Stalls_Percent_4_Bucket_1: 125786
Critical_ROB_Stalls_Percent_4_Bucket_2: 214238
Non-critical_ROB_Stalls_Percent_4_Bucket_2: 24388
Critical_ROB_Stalls_Percent_4_Bucket_3: 41846
Non-critical_ROB_Stalls_Percent_4_Bucket_3: 4450
Critical_ROB_Stalls_Percent_4_Bucket_4: 13709
Non-critical_ROB_Stalls_Percent_4_Bucket_4: 1544
Critical_ROB_Stalls_Percent_4_Bucket_5: 6713
Non-critical_ROB_Stalls_Percent_4_Bucket_5: 789
Critical_ROB_Stalls_Percent_4_Bucket_6: 16824
Non-critical_ROB_Stalls_Percent_4_Bucket_6: 838
Critical_ROB_Stalls_Percent_5_Bucket_0: 1793458
Non-critical_ROB_Stalls_Percent_5_Bucket_0: 754739
Critical_ROB_Stalls_Percent_5_Bucket_1: 514199
Non-critical_ROB_Stalls_Percent_5_Bucket_1: 90434
Critical_ROB_Stalls_Percent_5_Bucket_2: 221287
Non-critical_ROB_Stalls_Percent_5_Bucket_2: 17339
Critical_ROB_Stalls_Percent_5_Bucket_3: 42755
Non-critical_ROB_Stalls_Percent_5_Bucket_3: 3541
Critical_ROB_Stalls_Percent_5_Bucket_4: 13769
Non-critical_ROB_Stalls_Percent_5_Bucket_4: 1484
Critical_ROB_Stalls_Percent_5_Bucket_5: 6748
Non-critical_ROB_Stalls_Percent_5_Bucket_5: 754
Critical_ROB_Stalls_Percent_5_Bucket_6: 16851
Non-critical_ROB_Stalls_Percent_5_Bucket_6: 811
Critical_ROB_Stalls_Percent_6_Bucket_0: 1940850
Non-critical_ROB_Stalls_Percent_6_Bucket_0: 607347
Critical_ROB_Stalls_Percent_6_Bucket_1: 534964
Non-critical_ROB_Stalls_Percent_6_Bucket_1: 69669
Critical_ROB_Stalls_Percent_6_Bucket_2: 225559
Non-critical_ROB_Stalls_Percent_6_Bucket_2: 13067
Critical_ROB_Stalls_Percent_6_Bucket_3: 43593
Non-critical_ROB_Stalls_Percent_6_Bucket_3: 2703
Critical_ROB_Stalls_Percent_6_Bucket_4: 13920
Non-critical_ROB_Stalls_Percent_6_Bucket_4: 1333
Critical_ROB_Stalls_Percent_6_Bucket_5: 6783
Non-critical_ROB_Stalls_Percent_6_Bucket_5: 719
Critical_ROB_Stalls_Percent_6_Bucket_6: 16937
Non-critical_ROB_Stalls_Percent_6_Bucket_6: 725
Critical_ROB_Stalls_Percent_7_Bucket_0: 2090397
Non-critical_ROB_Stalls_Percent_7_Bucket_0: 457800
Critical_ROB_Stalls_Percent_7_Bucket_1: 554079
Non-critical_ROB_Stalls_Percent_7_Bucket_1: 50554
Critical_ROB_Stalls_Percent_7_Bucket_2: 230370
Non-critical_ROB_Stalls_Percent_7_Bucket_2: 8256
Critical_ROB_Stalls_Percent_7_Bucket_3: 43858
Non-critical_ROB_Stalls_Percent_7_Bucket_3: 2438
Critical_ROB_Stalls_Percent_7_Bucket_4: 13957
Non-critical_ROB_Stalls_Percent_7_Bucket_4: 1296
Critical_ROB_Stalls_Percent_7_Bucket_5: 6837
Non-critical_ROB_Stalls_Percent_7_Bucket_5: 665
Critical_ROB_Stalls_Percent_7_Bucket_6: 16955
Non-critical_ROB_Stalls_Percent_7_Bucket_6: 707
Critical_ROB_Stalls_Percent_8_Bucket_0: 2244197
Non-critical_ROB_Stalls_Percent_8_Bucket_0: 304000
Critical_ROB_Stalls_Percent_8_Bucket_1: 571236
Non-critical_ROB_Stalls_Percent_8_Bucket_1: 33397
Critical_ROB_Stalls_Percent_8_Bucket_2: 232212
Non-critical_ROB_Stalls_Percent_8_Bucket_2: 6414
Critical_ROB_Stalls_Percent_8_Bucket_3: 44513
Non-critical_ROB_Stalls_Percent_8_Bucket_3: 1783
Critical_ROB_Stalls_Percent_8_Bucket_4: 14388
Non-critical_ROB_Stalls_Percent_8_Bucket_4: 865
Critical_ROB_Stalls_Percent_8_Bucket_5: 6842
Non-critical_ROB_Stalls_Percent_8_Bucket_5: 660
Critical_ROB_Stalls_Percent_8_Bucket_6: 16970
Non-critical_ROB_Stalls_Percent_8_Bucket_6: 692
Average ROB occupancy Load Stall Begin: 34.7075
Average ROB occupancy Load Stall End: 42.6465
Min ROB occupancy Load Stall Begin: 1
Max ROB occupancy Load Stall Begin: 352
Min ROB occupancy Load Stall End: 1
Max ROB occupancy Load Stall End: 352
Average ROB occupancy Critical Load Stall Begin: 38.1884
Average ROB occupancy Critical Load Stall End: 45.3703
Min ROB occupancy Critical Load Stall Begin: 3
Max ROB occupancy Critical Load Stall Begin: 352
Min ROB occupancy Critical Load Stall End: 3
Max ROB occupancy Critical Load Stall End: 352
 ROB Load Stall Begin Bucket Count 0: 2749661
 ROB Load Stall End Bucket Count 0: 2548197
 ROB Critical Load Stall Begin Bucket Count 0: 611696
 ROB Critical Load Stall End Bucket Count 0: 605077
 ROB Load Stall Begin Bucket Count 1: 481243
 ROB Load Stall End Bucket Count 1: 604633
 ROB Critical Load Stall Begin Bucket Count 1: 80319
 ROB Critical Load Stall End Bucket Count 1: 71156
 ROB Load Stall Begin Bucket Count 2: 179427
 ROB Load Stall End Bucket Count 2: 238626
 ROB Critical Load Stall Begin Bucket Count 2: 57831
 ROB Critical Load Stall End Bucket Count 2: 68868
 ROB Load Stall Begin Bucket Count 3: 31732
 ROB Load Stall End Bucket Count 3: 46296
 ROB Critical Load Stall Begin Bucket Count 3: 8310
 ROB Critical Load Stall End Bucket Count 3: 12501
 ROB Load Stall Begin Bucket Count 4: 12400
 ROB Load Stall End Bucket Count 4: 15253
 ROB Critical Load Stall Begin Bucket Count 4: 5297
 ROB Critical Load Stall End Bucket Count 4: 5428
 ROB Load Stall Begin Bucket Count 5: 6849
 ROB Load Stall End Bucket Count 5: 7502
 ROB Critical Load Stall Begin Bucket Count 5: 5102
 ROB Critical Load Stall End Bucket Count 5: 5114
 ROB Load Stall Begin Bucket Count 6: 16858
 ROB Load Stall End Bucket Count 6: 17662
 ROB Critical Load Stall Begin Bucket Count 6: 15027
 ROB Critical Load Stall End Bucket Count 6: 15438
PIST Tag Read Accesses: 1944400
PIST Read Accesses: 972200
PIST Tag Write Accesses: 1944400
PIST Write Accesses: 972200
Criticality detector called times: 2694587
Max global_stall_cycles_count: 2009636
Threshold Modified: 1 times, factor: -1
Sturdy critical IP cache stats: 
 Unused entries: 0
CIC Tag Read Accesses: 0
CIC Read Accesses: 0
CIC Tag Write Accesses: 0
CIC Write Accesses: 0
Wobbly critical IP cache stats: 
 Unused entries: 110
CIC Tag Read Accesses: 78909498
CIC Read Accesses: 0
CIC Tag Write Accesses: 20
CIC Write Accesses: 0
ITLB TOTAL     ACCESS:   10315015  HIT:    9800352  MISS:     514663  HIT %:    95.0105  MISS %:    4.98945   MPKI: 10.2933
ITLB LOAD TRANSLATION ACCESS:    8795343  HIT:    8720892  MISS:      74451  HIT %:    99.1535  MISS %:   0.846482   MPKI: 1.48902
ITLB TRANSLATION FROM L1D PREFETCHER ACCESS:    1519672  HIT:    1079460  MISS:     440212  HIT %:    71.0324  MISS %:    28.9676   MPKI: 8.80424
ITLBprefetch_cycle_count: 0 prefetches_per_prefetch_cycle: -nan
ITLB PREFETCH  REQUESTED:          0  ISSUED:          0  USEFUL:     343642  USELESS:      96573
ITLB USEFUL LOAD PREFETCHES:     343642 PREFETCH ISSUED TO LOWER LEVEL:          0  ACCURACY: inf
ITLB TIMELY PREFETCHES:     343642 LATE PREFETCHES: 408 DROPPED PREFETCHES: 2807
ITLB PREFETCHES SAME FILL-ORIGIN LEVEL: 0 DIFFERENT FILL-ORIGIN LEVEL: 0
ITLB AVERAGE MISS LATENCY: 47311.9 cycles
ITLB RQ	ACCESS:   14235441	FORWARD:          0	MERGED:    3884779	TO_CACHE:   10350662

DTLB TOTAL     ACCESS:   10185184  HIT:    9801634  MISS:     383550  HIT %:    96.2342  MISS %:    3.76576   MPKI: 7.671
DTLB LOAD TRANSLATION ACCESS:   10185184  HIT:    9801634  MISS:     383550  HIT %:    96.2342  MISS %:    3.76576   MPKI: 7.671
DTLBprefetch_cycle_count: 0 prefetches_per_prefetch_cycle: -nan
DTLB PREFETCH  REQUESTED:          0  ISSUED:          0  USEFUL:          0  USELESS:          0
DTLB USEFUL LOAD PREFETCHES:          0 PREFETCH ISSUED TO LOWER LEVEL:          0  ACCURACY: -nan
DTLB TIMELY PREFETCHES:          0 LATE PREFETCHES: 0 DROPPED PREFETCHES: 0
DTLB PREFETCHES SAME FILL-ORIGIN LEVEL: 0 DIFFERENT FILL-ORIGIN LEVEL: 0
DTLB AVERAGE MISS LATENCY: 9.37863 cycles
DTLB RQ	ACCESS:   13092386	FORWARD:          0	MERGED:    2885489	TO_CACHE:   10206897

STLB TOTAL     ACCESS:    1755989  HIT:    1753961  MISS:       2028  HIT %:    99.8845  MISS %:    0.11549   MPKI: 0.04056
STLB LOAD TRANSLATION ACCESS:     457593  HIT:     455703  MISS:       1890  HIT %:     99.587  MISS %:   0.413031   MPKI: 0.0378
STLB TRANSLATION FROM L1D PREFETCHER ACCESS:    1298396  HIT:    1298258  MISS:        138  HIT %:    99.9894  MISS %:  0.0106285   MPKI: 0.00276
STLBprefetch_cycle_count: 0 prefetches_per_prefetch_cycle: -nan
STLB PREFETCH  REQUESTED:          0  ISSUED:          0  USEFUL:        124  USELESS:         14
STLB USEFUL LOAD PREFETCHES:        124 PREFETCH ISSUED TO LOWER LEVEL:          0  ACCURACY: inf
STLB TIMELY PREFETCHES:        124 LATE PREFETCHES: 0 DROPPED PREFETCHES: 2807
STLB PREFETCHES SAME FILL-ORIGIN LEVEL: 0 DIFFERENT FILL-ORIGIN LEVEL: 0
STLB AVERAGE MISS LATENCY: 75.9093 cycles
STLB RQ	ACCESS:    2429542	FORWARD:          0	MERGED:     670746	TO_CACHE:    1758796

STLB Hit, L1D data hit: 0
STLB Hit, L2C data hit: 0
STLB Hit, LLC data hit: 0
STLB Hit, LLC data miss: 0
STLB STLB hints to L2: 0
L1D TOTAL     ACCESS:   14181431  HIT:   13293856  MISS:     887575  HIT %:    93.7413  MISS %:    6.25871   MPKI: 17.7515
L1D LOAD      ACCESS:    7419076  HIT:    6833691  MISS:     585385  HIT %:    92.1097  MISS %:    7.89027   MPKI: 11.7077
L1D RFO       ACCESS:    5270898  HIT:    5042670  MISS:     228228  HIT %:      95.67  MISS %:    4.32996   MPKI: 4.56456
L1D PREFETCH  ACCESS:    1491457  HIT:    1417495  MISS:      73962  HIT %:     95.041  MISS %:    4.95904   MPKI: 1.47924
L1Dprefetch_cycle_count: 917789 prefetches_per_prefetch_cycle: 3.331
L1D PREFETCH  REQUESTED:    3057649  ISSUED:    3057154  USEFUL:      29721  USELESS:      44352
L1D USEFUL LOAD PREFETCHES:      29721 PREFETCH ISSUED TO LOWER LEVEL:      99216  ACCURACY: 29.9559
L1D TIMELY PREFETCHES:      29721 LATE PREFETCHES: 25040 DROPPED PREFETCHES: 0
L1D PREFETCHES SAME FILL-ORIGIN LEVEL: 99216 DIFFERENT FILL-ORIGIN LEVEL: 0
L1D AVERAGE MISS LATENCY: 1.71363e+06 cycles
L1D RQ	ACCESS:   10329329	FORWARD:          0	MERGED:    2771638	TO_CACHE:    7450122
L1D WQ	ACCESS:    5697707	FORWARD:     107679	MERGED:      55443	TO_CACHE:    5642264
L1D PQ	ACCESS:    1528632	FORWARD:          0	MERGED:          0	TO_CACHE:    1528522

L1D UNIQUE REGIONS ACCESSED: 0
L1D REGIONS CONFLICTS: 0
L1D Cross Page Prefetch Requests: 0
L1D Same Page Prefetch Requests: 4371057
L1D ROI Sum of L1D PQ occupancy: 19785314
L1D PREFETCHES PUSHED FROM L2C: 0
L1I TOTAL     ACCESS:   14117897  HIT:   10988608  MISS:    3129289  HIT %:    77.8346  MISS %:    22.1654   MPKI: 62.5858
L1I LOAD      ACCESS:    9935579  HIT:    9715970  MISS:     219609  HIT %:    97.7897  MISS %:    2.21033   MPKI: 4.39218
L1I PREFETCH  ACCESS:    4182318  HIT:    1272638  MISS:    2909680  HIT %:     30.429  MISS %:     69.571   MPKI: 58.1936
L1Iprefetch_cycle_count: 0 prefetches_per_prefetch_cycle: inf
L1I PREFETCH  REQUESTED:    4382072  ISSUED:    4369161  USEFUL:    1960535  USELESS:     949084
L1I USEFUL LOAD PREFETCHES:    1960535 PREFETCH ISSUED TO LOWER LEVEL:    2935361  ACCURACY: 66.7903
L1I TIMELY PREFETCHES:    1960535 LATE PREFETCHES: 25681 DROPPED PREFETCHES: 6857
L1I PREFETCHES SAME FILL-ORIGIN LEVEL: 2935361 DIFFERENT FILL-ORIGIN LEVEL: 0
L1I AVERAGE MISS LATENCY: 488899 cycles
L1I RQ	ACCESS:   13364641	FORWARD:          0	MERGED:    3408639	TO_CACHE:    9956002
L1I PQ	ACCESS:    4369161	FORWARD:          0	MERGED:      89722	TO_CACHE:    4279439

BTB TOTAL     ACCESS:    6534034  HIT:    5095597  MISS:    1438437  HIT %:    77.9855  MISS %:    22.0145   MPKI: 28.7687
BTB BRANCH_DIRECT_JUMP	ACCESS:     487044  HIT:     364834  MISS:     122210
BTB BRANCH_INDIRECT	ACCESS:     169158  HIT:     142414  MISS:      26744
BTB BRANCH_CONDITIONAL	ACCESS:    4098719  HIT:    3717570  MISS:     381149
BTB BRANCH_DIRECT_CALL	ACCESS:     755585  HIT:     471450  MISS:     284135
BTB BRANCH_INDIRECT_CALL	ACCESS:     133962  HIT:      76124  MISS:      57838
BTB BRANCH_RETURN	ACCESS:     889566  HIT:     323205  MISS:     566361
BTB BRANCH_OTHER ACCESS:          0  HIT:          0  MISS:          0

L2C TOTAL     ACCESS:    4419045  HIT:    3960876  MISS:     458169  HIT %:    89.6319  MISS %:    10.3681   MPKI: 9.16338
L2C LOAD      ACCESS:     754227  HIT:     622954  MISS:     131273  HIT %:     82.595  MISS %:     17.405   MPKI: 2.62546
L2C DATA LOAD MPKI: 2.04372
L2C INSTRUCTION LOAD MPKI: 0.58174
L2C RFO       ACCESS:     228010  HIT:     176741  MISS:      51269  HIT %:    77.5146  MISS %:    22.4854   MPKI: 1.02538
L2C PREFETCH  ACCESS:    3034546  HIT:    2778011  MISS:     256535  HIT %:    91.5462  MISS %:    8.45382   MPKI: 5.1307
L2C DATA PREFETCH MPKI: 0.71268
L2C INSTRUCTION PREFETCH MPKI: 4.41802
L2C WRITEBACK ACCESS:     395281  HIT:     377972  MISS:      17309  HIT %:    95.6211  MISS %:    4.37891   MPKI: 0.34618
L2C LOAD TRANSLATION ACCESS:       2113  HIT:        589  MISS:       1524  HIT %:    27.8751  MISS %:    72.1249   MPKI: 0.03048
L2C TRANSLATION FROM L1D PREFETCHER ACCESS:       4868  HIT:       4609  MISS:        259  HIT %:    94.6795  MISS %:    5.32046   MPKI: 0.00518
L2Cprefetch_cycle_count: 0 prefetches_per_prefetch_cycle: -nan
L2C PREFETCH  REQUESTED:          0  ISSUED:          0  USEFUL:       8055  USELESS:     248531
L2C USEFUL LOAD PREFETCHES:       8055 PREFETCH ISSUED TO LOWER LEVEL:     256535  ACCURACY: 3.13992
L2C TIMELY PREFETCHES:       8055 LATE PREFETCHES: 0 DROPPED PREFETCHES: 0
L2C PREFETCHES SAME FILL-ORIGIN LEVEL: 0 DIFFERENT FILL-ORIGIN LEVEL: 0
L2C AVERAGE MISS LATENCY: 38.3233 cycles
L2C RQ	ACCESS:     989268	FORWARD:          0	MERGED:          0	TO_CACHE:     989218
L2C WQ	ACCESS:     395281	FORWARD:         81	MERGED:          0	TO_CACHE:     395281
L2C PQ	ACCESS:    3034577	FORWARD:          0	MERGED:          0	TO_CACHE:    3034546

L2C Instructions Evicting Data 106561
L2C Translations Evicting Data 1176
L2C Data Evicting Data 92806
L2C Instructions Evicting Instructions 142741
L2C Translations Evicting Instructions 594
L2C Data Evicting Instructions 95170
L2C Instructions Evicting Translations 686
L2C Translations Evicting Translations 13
L2C Data Evicting Translations 1113
L2C Dense regions hint from L2: 0
PSCL5 TOTAL     ACCESS:       4835  HIT:       4835  MISS:          0  HIT %:        100  MISS %:          0   MPKI: 0
PSCL5 LOAD TRANSLATION ACCESS:       1890  HIT:       1890  MISS:          0  HIT %:        100  MISS %:          0   MPKI: 0
PSCL5 TRANSLATION FROM L1D PREFETCHER ACCESS:       2945  HIT:       2945  MISS:          0  HIT %:        100  MISS %:          0   MPKI: 0
PSCL5prefetch_cycle_count: 0 prefetches_per_prefetch_cycle: -nan
PSCL5 PREFETCH  REQUESTED:          0  ISSUED:          0  USEFUL:          0  USELESS:          0
PSCL5 USEFUL LOAD PREFETCHES:          0 PREFETCH ISSUED TO LOWER LEVEL:          0  ACCURACY: -nan
PSCL5 TIMELY PREFETCHES:          0 LATE PREFETCHES: 0 DROPPED PREFETCHES: 0
PSCL5 PREFETCHES SAME FILL-ORIGIN LEVEL: 0 DIFFERENT FILL-ORIGIN LEVEL: 0

PSCL4 TOTAL     ACCESS:       4669  HIT:       4656  MISS:         13  HIT %:    99.7216  MISS %:   0.278432   MPKI: 0.00026
PSCL4 LOAD TRANSLATION ACCESS:       1760  HIT:       1747  MISS:         13  HIT %:    99.2614  MISS %:   0.738636   MPKI: 0.00026
PSCL4 TRANSLATION FROM L1D PREFETCHER ACCESS:       2909  HIT:       2909  MISS:          0  HIT %:        100  MISS %:          0   MPKI: 0
PSCL4prefetch_cycle_count: 0 prefetches_per_prefetch_cycle: -nan
PSCL4 PREFETCH  REQUESTED:          0  ISSUED:          0  USEFUL:          0  USELESS:          0
PSCL4 USEFUL LOAD PREFETCHES:          0 PREFETCH ISSUED TO LOWER LEVEL:          0  ACCURACY: -nan
PSCL4 TIMELY PREFETCHES:          0 LATE PREFETCHES: 0 DROPPED PREFETCHES: 0
PSCL4 PREFETCHES SAME FILL-ORIGIN LEVEL: 0 DIFFERENT FILL-ORIGIN LEVEL: 0

PSCL3 TOTAL     ACCESS:       4769  HIT:       4756  MISS:         13  HIT %:    99.7274  MISS %:   0.272594   MPKI: 0.00026
PSCL3 LOAD TRANSLATION ACCESS:       1860  HIT:       1847  MISS:         13  HIT %:    99.3011  MISS %:   0.698925   MPKI: 0.00026
PSCL3 TRANSLATION FROM L1D PREFETCHER ACCESS:       2909  HIT:       2909  MISS:          0  HIT %:        100  MISS %:          0   MPKI: 0
PSCL3prefetch_cycle_count: 0 prefetches_per_prefetch_cycle: -nan
PSCL3 PREFETCH  REQUESTED:          0  ISSUED:          0  USEFUL:          0  USELESS:          0
PSCL3 USEFUL LOAD PREFETCHES:          0 PREFETCH ISSUED TO LOWER LEVEL:          0  ACCURACY: -nan
PSCL3 TIMELY PREFETCHES:          0 LATE PREFETCHES: 0 DROPPED PREFETCHES: 0
PSCL3 PREFETCHES SAME FILL-ORIGIN LEVEL: 0 DIFFERENT FILL-ORIGIN LEVEL: 0

PSCL2 TOTAL     ACCESS:       2988  HIT:       2759  MISS:        229  HIT %:     92.336  MISS %:    7.66399   MPKI: 0.00458
PSCL2 LOAD TRANSLATION ACCESS:       1918  HIT:       1689  MISS:        229  HIT %:    88.0605  MISS %:    11.9395   MPKI: 0.00458
PSCL2 TRANSLATION FROM L1D PREFETCHER ACCESS:       1070  HIT:       1070  MISS:          0  HIT %:        100  MISS %:          0   MPKI: 0
PSCL2prefetch_cycle_count: 0 prefetches_per_prefetch_cycle: -nan
PSCL2 PREFETCH  REQUESTED:          0  ISSUED:          0  USEFUL:          0  USELESS:          0
PSCL2 USEFUL LOAD PREFETCHES:          0 PREFETCH ISSUED TO LOWER LEVEL:          0  ACCURACY: -nan
PSCL2 TIMELY PREFETCHES:          0 LATE PREFETCHES: 0 DROPPED PREFETCHES: 0
PSCL2 PREFETCHES SAME FILL-ORIGIN LEVEL: 0 DIFFERENT FILL-ORIGIN LEVEL: 0

LLC TOTAL     ACCESS:     516364  HIT:     488248  MISS:      28116  HIT %:     94.555  MISS %:      5.445   MPKI: 0.56232
LLC LOAD      ACCESS:     131271  HIT:     123633  MISS:       7638  HIT %:    94.1815  MISS %:     5.8185   MPKI: 0.15276
LLC RFO       ACCESS:      51269  HIT:      37084  MISS:      14185  HIT %:    72.3322  MISS %:    27.6678   MPKI: 0.2837
LLC PREFETCH  ACCESS:     256535  HIT:     250727  MISS:       5808  HIT %:     97.736  MISS %:    2.26402   MPKI: 0.11616
LLC WRITEBACK ACCESS:      75506  HIT:      75160  MISS:        346  HIT %:    99.5418  MISS %:   0.458242   MPKI: 0.00692
LLC LOAD TRANSLATION ACCESS:       1524  HIT:       1404  MISS:        120  HIT %:     92.126  MISS %:    7.87402   MPKI: 0.0024
LLC TRANSLATION FROM L1D PREFETCHER ACCESS:        259  HIT:        240  MISS:         19  HIT %:    92.6641  MISS %:    7.33591   MPKI: 0.00038
LLCprefetch_cycle_count: 0 prefetches_per_prefetch_cycle: -nan
LLC PREFETCH  REQUESTED:          0  ISSUED:          0  USEFUL:       1096  USELESS:       8354
LLC USEFUL LOAD PREFETCHES:       1096 PREFETCH ISSUED TO LOWER LEVEL:       5808  ACCURACY: 18.8705
LLC TIMELY PREFETCHES:       1096 LATE PREFETCHES: 0 DROPPED PREFETCHES: 0
LLC PREFETCHES SAME FILL-ORIGIN LEVEL: 0 DIFFERENT FILL-ORIGIN LEVEL: 0
LLC AVERAGE MISS LATENCY: 152.914 cycles
LLC RQ	ACCESS:     184325	FORWARD:          0	MERGED:          0	TO_CACHE:     184323
LLC WQ	ACCESS:      75506	FORWARD:          2	MERGED:          0	TO_CACHE:      75506
LLC PQ	ACCESS:     256535	FORWARD:          0	MERGED:          0	TO_CACHE:     256535

LLC Dense regions hint to LLC: 0

RAW hits: 802981
Loads Generated: 11132312
Loads sent to L1D: 10329329
Stores Generated: 5697707
Stores sent to L1D: 5697707
Major fault: 0 Minor fault: 2472
Allocated PAGES: 2472
I-Shadow cache 408 bytes
Touched + WorthPF tables 6144 bytes 
MMA filter 174 bytes 
FNL filter 272 bytes 
TOTAL PREFETCHER STORAGE SIZE: 25174 bytes
CPU 0 L1I next line prefetcher final stats

total_pref_operate_instances_l1: 7450121
dynamic_config_counter_instances_1: 6581401
dynamic_config_counter_instances_2: 2545
dynamic_config_counter_instances_3: 866175
dynamic_config_counter_instances_4: 0
dynamic_config_counter_instances_5: 0
stream: 
stream:times selected: 3420531
stream:pref_filled: 69426
stream:pref_useful: 20868
stream:pref_late: 3051
stream:misses: 5248
stream:misses_by_poll: 0

CS: 
CS:times selected: 2157495
CS:pref_filled: 60888
CS:pref_useful: 47127
CS:pref_late: 12981
CS:misses: 25959
CS:misses_by_poll: 2

CPLX: 
CPLX:times selected: 1259593
CPLX:pref_filled: 22367
CPLX:pref_useful: 11395
CPLX:pref_late: 1044
CPLX:misses: 47618
CPLX:misses_by_poll: 0

NL_L1: 
NL:times selected: 342801
NL:pref_filled: 48703
NL:pref_useful: 8265
NL:pref_late: 11140
NL:misses: 94517
NL:misses_by_poll: 5

total selections: 7180420
total_filled: 73962
total_useful: 29721
total_late: 30799
total_polluted: 7
total_misses_after_warmup: 616430
conflicts: 2289001
Degree Incremented Times: 18158
Degree Decremented Times: 60127

L1 IP Table Write Accesses: 4904445
L1 IP Table Read Accesses: 2615444
L1 RST Write Accesses: 1469876
L1 RST Read Accesses: 2939752
L1 CSPT Write Accesses: 1469876
L1 CSPT Read Accesses: 1481447
L1 RR Filter Tag Write Accesses: 1529127
L1 RR Filter Tag Read Accesses: 92515260
L1 IP Table Tag Write Accesses: 7450121
L1 IP Table Tag Read Accesses: 7450121
L1 RST Tag Write Accesses: 0
L1 RST Tag Read Accesses: 12077372
L1 RR Filter Write Accesses: 0
L1 RR Filter Read Accesses: 3026976
test: 301173

DRAM Statistics
 CHANNEL 0
 RQ ROW_BUFFER_HIT:       9915  ROW_BUFFER_MISS:      17847
 DBUS_CONGESTED:          6
 WQ ROW_BUFFER_HIT:       2200  ROW_BUFFER_MISS:      11419  FULL:          0

 AVG_CONGESTED_CYCLE: 3
 All warmup complete: 2
Channel 0 Bank busy for read cycles: 0
Channel 0 Bank busy for write cycles: 0
Channel 0
Rank 0
0banks busy for read cycles: 74914260
0banks busy for write cycles: 3124
1banks busy for read cycles: 1015849
1banks busy for write cycles: 421522
2banks busy for read cycles: 333158
2banks busy for write cycles: 141012
3banks busy for read cycles: 74323
3banks busy for write cycles: 88720
4banks busy for read cycles: 47088
4banks busy for write cycles: 70302
5banks busy for read cycles: 25892
5banks busy for write cycles: 58546
6banks busy for read cycles: 28804
6banks busy for write cycles: 58886
7banks busy for read cycles: 32085
7banks busy for write cycles: 52372
8banks busy for read cycles: 70662
8banks busy for write cycles: 78227

CPU 0 Branch Prediction Accuracy: 99.7225% MPKI: 0.50376 Average ROB Occupancy at Mispredict: 59.1051
Branch types
NOT_BRANCH: 40923872 81.8477%
BRANCH_DIRECT_JUMP: 487044 0.974088%
BRANCH_INDIRECT: 169158 0.338316%
BRANCH_CONDITIONAL: 6640823 13.2816%
BRANCH_DIRECT_CALL: 755585 1.51117%
BRANCH_INDIRECT_CALL: 133962 0.267924%
BRANCH_RETURN: 889566 1.77913%
BRANCH_OTHER: 0 0%

DRAM PAGES: 1048576
Allocated PAGES: 2472
