
*** ChampSim Multicore Out-of-Order Simulator ***

Warmup Instructions: 50000000
Simulation Instructions: 50000000
Number of CPUs: 1
LLC sets: 2048
LLC ways: 16
Off-chip DRAM Size: 4096 MB Channels: 1 Width: 64-bit Data Rate: 6400 MT/s
CPU 0 runs ../IPC-traces//server_019.champsimtrace.xz
.xz
NUM_OF_IPS_IN_CRITICAL_IP_TRAINING: 64
NUM_OF_CRITICAL_IP_TRAINING_TABLE_WAYS: 2
NUM_OF_CRITICAL_IP_TRAINING_TABLE_SETS: 32
WOBBLY_CRITICAL_IP_CACHE_SETS: 32
WOBBLY_CRITICAL_IP_CACHE_WAYS: 4
BTB has LRU replacement policy
ITLB has LRU replacement policy
DTLB has LRU replacement policy
STLB has LRU replacement policy
CPU 0 L1I next line prefetcher
L1I has LRU replacement policy
IP Table Entries: 64
L1D has LRU replacement policy
Initialize SRRIP state for L2C
Initialize DRRIP state for LLC
Heartbeat CPU 0 instructions: 10000002 cycles: 3147546 heartbeat IPC: 3.17708 cumulative IPC: 3.17708 (Simulation time: 0 hr 5 min 44 sec) 
Heartbeat CPU 0 instructions: 20000001 cycles: 6292549 heartbeat IPC: 3.17965 cumulative IPC: 3.17836 (Simulation time: 0 hr 10 min 29 sec) 
Heartbeat CPU 0 instructions: 30000001 cycles: 9436970 heartbeat IPC: 3.18024 cumulative IPC: 3.17899 (Simulation time: 0 hr 14 min 24 sec) 
Heartbeat CPU 0 instructions: 40000002 cycles: 12595770 heartbeat IPC: 3.16576 cumulative IPC: 3.17567 (Simulation time: 0 hr 17 min 53 sec) 
Heartbeat CPU 0 instructions: 50000001 cycles: 15738148 heartbeat IPC: 3.1823 cumulative IPC: 3.17699 (Simulation time: 0 hr 21 min 12 sec) 

Warmup complete CPU 0 instructions: 50000001 cycles: 15738148 (Simulation time: 0 hr 21 min 12 sec) 

% increase in all ip prefetch 655.159
% increase in all ip prefetch -14.2551
Heartbeat CPU 0 instructions: 60000003 cycles: 38243243 heartbeat IPC: 0.444344 cumulative IPC: 0.444344 (Simulation time: 0 hr 26 min 15 sec) 
Heartbeat CPU 0 instructions: 70000002 cycles: 64267399 heartbeat IPC: 0.384258 cumulative IPC: 0.412123 (Simulation time: 0 hr 30 min 51 sec) 
Heartbeat CPU 0 instructions: 80000001 cycles: 88855836 heartbeat IPC: 0.406695 cumulative IPC: 0.410297 (Simulation time: 0 hr 35 min 35 sec) 
Heartbeat CPU 0 instructions: 90000000 cycles: 109212658 heartbeat IPC: 0.491236 cumulative IPC: 0.427924 (Simulation time: 0 hr 43 min 13 sec) 
Heartbeat CPU 0 instructions: 100000002 cycles: 129407104 heartbeat IPC: 0.495186 cumulative IPC: 0.439874 (Simulation time: 0 hr 50 min 8 sec) 
Finished CPU 0 instructions: 50000001 cycles: 113668956 cumulative IPC: 0.439874 (Simulation time: 0 hr 50 min 8 sec) 

ChampSim completed all CPUs

Region of Interest Statistics

CPU 0 cumulative IPC: 0.439874 instructions: 50000001 cycles: 113668956

CPU 0 Average Load ROB stall cycles: 3.42442e+07
CPU 0 Fraction of times ROB stalled by Loads: 45.6645
CPU 0 Percentage of Load stall cycles in Total stall cycles: 2.51588e+08
Issued all: 50625854
Issued LT all: 45207434
rob_not_full_when_issued_lt_all: 17195021
Issued LT one: 39622034
rob_not_full_when_issued_lt_one: 13289234
 Total stall cycles: 94989427
 Total load stall cycles: 238981608056260
CPU 0 NUM of IPS identified critical: 0
CPU 0 Num of Load IPs stalling ROB: 5509
Threshold modification factor: -1
Max PIST entries: 64
Min PIST entries: 0
Avg PIST entries: 30.29
Trouble in retire width: 0.821684
MaC = Marked as critical.
lt_50_percent_before_Mac: 0
gt_90_percent_before_Mac: 0
gt_75_percent_before_Mac: 0
gt_50_percent_before_Mac: 0
stall_proportion_bin_same_before_after: 0
stall_proportion_bin_lower_before_after: 0
stall_proportion_bin_upper_before_after: 0
average_stall_proportion_before: -nan
average_stall_proportion_after: -nan
Critical IP stalls, total frequency: 0
Non-critical IP stalls, total frequency: 3186807
Total Freq all stalling IPs: 3186807
stat_90_percent_critical_ip_stalls_freq: 2868469
stat_90_percent_non_critical_ip_stalls_freq: 318338
Critical_IP_ROB_Stalls_Bucket_0: 0
Non-critical_IP_ROB_Stalls_Bucket_0: 460630
Critical_IP_ROB_Stalls_Bucket_1: 0
Non-critical_IP_ROB_Stalls_Bucket_1: 572353
Critical_IP_ROB_Stalls_Bucket_2: 0
Non-critical_IP_ROB_Stalls_Bucket_2: 466224
Critical_IP_ROB_Stalls_Bucket_3: 0
Non-critical_IP_ROB_Stalls_Bucket_3: 332365
Critical_IP_ROB_Stalls_Bucket_4: 0
Non-critical_IP_ROB_Stalls_Bucket_4: 189560
Critical_IP_ROB_Stalls_Bucket_5: 0
Non-critical_IP_ROB_Stalls_Bucket_5: 171611
Critical_IP_ROB_Stalls_Bucket_6: 0
Non-critical_IP_ROB_Stalls_Bucket_6: 994064
0 => IPs accounting for >50 percent of stalls, 1 => 55, 2 => 60, 3 => 65 and so on till 90.
percent50: 50.1996 num IPs:  8
percent55: 55.2053 num IPs: 15
percent60: 60.1116 num IPs: 34
percent65: 65.0681 num IPs: 69
percent70: 70.0566 num IPs: 127
percent75: 75.0248 num IPs: 203
percent80: 80.0311 num IPs: 281
percent85: 85.006 num IPs: 365
percent90: 90.0108 num IPs: 474
Critical_ROB_Stalls_Percent_0_Bucket_0: 36901
Non-critical_ROB_Stalls_Percent_0_Bucket_0: 423729
Critical_ROB_Stalls_Percent_0_Bucket_1: 93974
Non-critical_ROB_Stalls_Percent_0_Bucket_1: 478379
Critical_ROB_Stalls_Percent_0_Bucket_2: 180190
Non-critical_ROB_Stalls_Percent_0_Bucket_2: 286034
Critical_ROB_Stalls_Percent_0_Bucket_3: 182116
Non-critical_ROB_Stalls_Percent_0_Bucket_3: 150249
Critical_ROB_Stalls_Percent_0_Bucket_4: 123702
Non-critical_ROB_Stalls_Percent_0_Bucket_4: 65858
Critical_ROB_Stalls_Percent_0_Bucket_5: 113742
Non-critical_ROB_Stalls_Percent_0_Bucket_5: 57869
Critical_ROB_Stalls_Percent_0_Bucket_6: 869140
Non-critical_ROB_Stalls_Percent_0_Bucket_6: 124924
Critical_ROB_Stalls_Percent_1_Bucket_0: 62886
Non-critical_ROB_Stalls_Percent_1_Bucket_0: 397744
Critical_ROB_Stalls_Percent_1_Bucket_1: 148738
Non-critical_ROB_Stalls_Percent_1_Bucket_1: 423615
Critical_ROB_Stalls_Percent_1_Bucket_2: 200665
Non-critical_ROB_Stalls_Percent_1_Bucket_2: 265559
Critical_ROB_Stalls_Percent_1_Bucket_3: 214741
Non-critical_ROB_Stalls_Percent_1_Bucket_3: 117624
Critical_ROB_Stalls_Percent_1_Bucket_4: 133224
Non-critical_ROB_Stalls_Percent_1_Bucket_4: 56336
Critical_ROB_Stalls_Percent_1_Bucket_5: 125058
Non-critical_ROB_Stalls_Percent_1_Bucket_5: 46553
Critical_ROB_Stalls_Percent_1_Bucket_6: 873974
Non-critical_ROB_Stalls_Percent_1_Bucket_6: 120090
Critical_ROB_Stalls_Percent_2_Bucket_0: 118724
Non-critical_ROB_Stalls_Percent_2_Bucket_0: 341906
Critical_ROB_Stalls_Percent_2_Bucket_1: 194073
Non-critical_ROB_Stalls_Percent_2_Bucket_1: 378280
Critical_ROB_Stalls_Percent_2_Bucket_2: 218154
Non-critical_ROB_Stalls_Percent_2_Bucket_2: 248070
Critical_ROB_Stalls_Percent_2_Bucket_3: 227941
Non-critical_ROB_Stalls_Percent_2_Bucket_3: 104424
Critical_ROB_Stalls_Percent_2_Bucket_4: 139912
Non-critical_ROB_Stalls_Percent_2_Bucket_4: 49648
Critical_ROB_Stalls_Percent_2_Bucket_5: 131559
Non-critical_ROB_Stalls_Percent_2_Bucket_5: 40052
Critical_ROB_Stalls_Percent_2_Bucket_6: 885279
Non-critical_ROB_Stalls_Percent_2_Bucket_6: 108785
Critical_ROB_Stalls_Percent_3_Bucket_0: 176503
Non-critical_ROB_Stalls_Percent_3_Bucket_0: 284127
Critical_ROB_Stalls_Percent_3_Bucket_1: 225478
Non-critical_ROB_Stalls_Percent_3_Bucket_1: 346875
Critical_ROB_Stalls_Percent_3_Bucket_2: 247299
Non-critical_ROB_Stalls_Percent_3_Bucket_2: 218925
Critical_ROB_Stalls_Percent_3_Bucket_3: 234202
Non-critical_ROB_Stalls_Percent_3_Bucket_3: 98163
Critical_ROB_Stalls_Percent_3_Bucket_4: 145402
Non-critical_ROB_Stalls_Percent_3_Bucket_4: 44158
Critical_ROB_Stalls_Percent_3_Bucket_5: 137739
Non-critical_ROB_Stalls_Percent_3_Bucket_5: 33872
Critical_ROB_Stalls_Percent_3_Bucket_6: 906973
Non-critical_ROB_Stalls_Percent_3_Bucket_6: 87091
Critical_ROB_Stalls_Percent_4_Bucket_0: 212239
Non-critical_ROB_Stalls_Percent_4_Bucket_0: 248391
Critical_ROB_Stalls_Percent_4_Bucket_1: 273611
Non-critical_ROB_Stalls_Percent_4_Bucket_1: 298742
Critical_ROB_Stalls_Percent_4_Bucket_2: 279136
Non-critical_ROB_Stalls_Percent_4_Bucket_2: 187088
Critical_ROB_Stalls_Percent_4_Bucket_3: 246222
Non-critical_ROB_Stalls_Percent_4_Bucket_3: 86143
Critical_ROB_Stalls_Percent_4_Bucket_4: 150167
Non-critical_ROB_Stalls_Percent_4_Bucket_4: 39393
Critical_ROB_Stalls_Percent_4_Bucket_5: 143497
Non-critical_ROB_Stalls_Percent_4_Bucket_5: 28114
Critical_ROB_Stalls_Percent_4_Bucket_6: 927695
Non-critical_ROB_Stalls_Percent_4_Bucket_6: 66369
Critical_ROB_Stalls_Percent_5_Bucket_0: 232328
Non-critical_ROB_Stalls_Percent_5_Bucket_0: 228302
Critical_ROB_Stalls_Percent_5_Bucket_1: 330703
Non-critical_ROB_Stalls_Percent_5_Bucket_1: 241650
Critical_ROB_Stalls_Percent_5_Bucket_2: 317261
Non-critical_ROB_Stalls_Percent_5_Bucket_2: 148963
Critical_ROB_Stalls_Percent_5_Bucket_3: 267415
Non-critical_ROB_Stalls_Percent_5_Bucket_3: 64950
Critical_ROB_Stalls_Percent_5_Bucket_4: 163935
Non-critical_ROB_Stalls_Percent_5_Bucket_4: 25625
Critical_ROB_Stalls_Percent_5_Bucket_5: 148626
Non-critical_ROB_Stalls_Percent_5_Bucket_5: 22985
Critical_ROB_Stalls_Percent_5_Bucket_6: 930624
Non-critical_ROB_Stalls_Percent_5_Bucket_6: 63440
Critical_ROB_Stalls_Percent_6_Bucket_0: 273711
Non-critical_ROB_Stalls_Percent_6_Bucket_0: 186919
Critical_ROB_Stalls_Percent_6_Bucket_1: 386313
Non-critical_ROB_Stalls_Percent_6_Bucket_1: 186040
Critical_ROB_Stalls_Percent_6_Bucket_2: 345803
Non-critical_ROB_Stalls_Percent_6_Bucket_2: 120421
Critical_ROB_Stalls_Percent_6_Bucket_3: 284309
Non-critical_ROB_Stalls_Percent_6_Bucket_3: 48056
Critical_ROB_Stalls_Percent_6_Bucket_4: 168643
Non-critical_ROB_Stalls_Percent_6_Bucket_4: 20917
Critical_ROB_Stalls_Percent_6_Bucket_5: 152870
Non-critical_ROB_Stalls_Percent_6_Bucket_5: 18741
Critical_ROB_Stalls_Percent_6_Bucket_6: 938783
Non-critical_ROB_Stalls_Percent_6_Bucket_6: 55281
Critical_ROB_Stalls_Percent_7_Bucket_0: 316419
Non-critical_ROB_Stalls_Percent_7_Bucket_0: 144211
Critical_ROB_Stalls_Percent_7_Bucket_1: 436522
Non-critical_ROB_Stalls_Percent_7_Bucket_1: 135831
Critical_ROB_Stalls_Percent_7_Bucket_2: 386302
Non-critical_ROB_Stalls_Percent_7_Bucket_2: 79922
Critical_ROB_Stalls_Percent_7_Bucket_3: 291897
Non-critical_ROB_Stalls_Percent_7_Bucket_3: 40468
Critical_ROB_Stalls_Percent_7_Bucket_4: 172251
Non-critical_ROB_Stalls_Percent_7_Bucket_4: 17309
Critical_ROB_Stalls_Percent_7_Bucket_5: 156790
Non-critical_ROB_Stalls_Percent_7_Bucket_5: 14821
Critical_ROB_Stalls_Percent_7_Bucket_6: 948794
Non-critical_ROB_Stalls_Percent_7_Bucket_6: 45270
Critical_ROB_Stalls_Percent_8_Bucket_0: 360226
Non-critical_ROB_Stalls_Percent_8_Bucket_0: 100404
Critical_ROB_Stalls_Percent_8_Bucket_1: 482020
Non-critical_ROB_Stalls_Percent_8_Bucket_1: 90333
Critical_ROB_Stalls_Percent_8_Bucket_2: 414383
Non-critical_ROB_Stalls_Percent_8_Bucket_2: 51841
Critical_ROB_Stalls_Percent_8_Bucket_3: 305230
Non-critical_ROB_Stalls_Percent_8_Bucket_3: 27135
Critical_ROB_Stalls_Percent_8_Bucket_4: 178090
Non-critical_ROB_Stalls_Percent_8_Bucket_4: 11470
Critical_ROB_Stalls_Percent_8_Bucket_5: 162876
Non-critical_ROB_Stalls_Percent_8_Bucket_5: 8735
Critical_ROB_Stalls_Percent_8_Bucket_6: 965644
Non-critical_ROB_Stalls_Percent_8_Bucket_6: 28420
Average ROB occupancy Load Stall Begin: 181.434
Average ROB occupancy Load Stall End: 190.762
Min ROB occupancy Load Stall Begin: 1
Max ROB occupancy Load Stall Begin: 352
Min ROB occupancy Load Stall End: 1
Max ROB occupancy Load Stall End: 352
Average ROB occupancy Critical Load Stall Begin: -nan
Average ROB occupancy Critical Load Stall End: -nan
Min ROB occupancy Critical Load Stall Begin: 400
Max ROB occupancy Critical Load Stall Begin: 0
Min ROB occupancy Critical Load Stall End: 400
Max ROB occupancy Critical Load Stall End: 0
 ROB Load Stall Begin Bucket Count 0: 648239
 ROB Load Stall End Bucket Count 0: 460630
 ROB Critical Load Stall Begin Bucket Count 0: 0
 ROB Critical Load Stall End Bucket Count 0: 0
 ROB Load Stall Begin Bucket Count 1: 529565
 ROB Load Stall End Bucket Count 1: 572353
 ROB Critical Load Stall Begin Bucket Count 1: 0
 ROB Critical Load Stall End Bucket Count 1: 0
 ROB Load Stall Begin Bucket Count 2: 428516
 ROB Load Stall End Bucket Count 2: 466224
 ROB Critical Load Stall Begin Bucket Count 2: 0
 ROB Critical Load Stall End Bucket Count 2: 0
 ROB Load Stall Begin Bucket Count 3: 278163
 ROB Load Stall End Bucket Count 3: 332365
 ROB Critical Load Stall Begin Bucket Count 3: 0
 ROB Critical Load Stall End Bucket Count 3: 0
 ROB Load Stall Begin Bucket Count 4: 175337
 ROB Load Stall End Bucket Count 4: 189560
 ROB Critical Load Stall Begin Bucket Count 4: 0
 ROB Critical Load Stall End Bucket Count 4: 0
 ROB Load Stall Begin Bucket Count 5: 165685
 ROB Load Stall End Bucket Count 5: 171611
 ROB Critical Load Stall Begin Bucket Count 5: 0
 ROB Critical Load Stall End Bucket Count 5: 0
 ROB Load Stall Begin Bucket Count 6: 961302
 ROB Load Stall End Bucket Count 6: 994064
 ROB Critical Load Stall Begin Bucket Count 6: 0
 ROB Critical Load Stall End Bucket Count 6: 0
PIST Tag Read Accesses: 2474858
PIST Read Accesses: 1237429
PIST Tag Write Accesses: 2474858
PIST Write Accesses: 1237429
Criticality detector called times: 1557296
Max global_stall_cycles_count: 3943144
Threshold Modified: 1 times, factor: -1
Sturdy critical IP cache stats: 
 Unused entries: 0
CIC Tag Read Accesses: 0
CIC Read Accesses: 0
CIC Tag Write Accesses: 0
CIC Write Accesses: 0
Wobbly critical IP cache stats: 
 Unused entries: 111
CIC Tag Read Accesses: 88484150
CIC Read Accesses: 0
CIC Tag Write Accesses: 86594
CIC Write Accesses: 0
ITLB TOTAL     ACCESS:    9983558  HIT:    9578705  MISS:     404853  HIT %:    95.9448  MISS %:     4.0552   MPKI: 8.09706
ITLB LOAD TRANSLATION ACCESS:    8285569  HIT:    8276507  MISS:       9062  HIT %:    99.8906  MISS %:   0.109371   MPKI: 0.18124
ITLB TRANSLATION FROM L1D PREFETCHER ACCESS:    1697989  HIT:    1302198  MISS:     395791  HIT %:    76.6906  MISS %:    23.3094   MPKI: 7.91582
ITLB PREFETCH  REQUESTED:          0  ISSUED:          0  USEFUL:     359383  USELESS:      36404
ITLB USEFUL LOAD PREFETCHES:     359383 PREFETCH ISSUED TO LOWER LEVEL:          0  ACCURACY: inf
ITLB TIMELY PREFETCHES:     359383 LATE PREFETCHES: 290 DROPPED PREFETCHES: 90
ITLB PREFETCHES SAME FILL-ORIGIN LEVEL: 0 DIFFERENT FILL-ORIGIN LEVEL: 0
ITLB AVERAGE MISS LATENCY: 52947.4 cycles
ITLB RQ	ACCESS:   14049164	FORWARD:          0	MERGED:    4026217	TO_CACHE:   10022947

DTLB TOTAL     ACCESS:   10540494  HIT:   10097987  MISS:     442507  HIT %:    95.8018  MISS %:    4.19816   MPKI: 8.85014
DTLB LOAD TRANSLATION ACCESS:   10540494  HIT:   10097987  MISS:     442507  HIT %:    95.8018  MISS %:    4.19816   MPKI: 8.85014
DTLB PREFETCH  REQUESTED:          0  ISSUED:          0  USEFUL:          0  USELESS:          0
DTLB USEFUL LOAD PREFETCHES:          0 PREFETCH ISSUED TO LOWER LEVEL:          0  ACCURACY: -nan
DTLB TIMELY PREFETCHES:          0 LATE PREFETCHES: 0 DROPPED PREFETCHES: 0
DTLB PREFETCHES SAME FILL-ORIGIN LEVEL: 0 DIFFERENT FILL-ORIGIN LEVEL: 0
DTLB AVERAGE MISS LATENCY: 23.897 cycles
DTLB RQ	ACCESS:   15299028	FORWARD:          0	MERGED:    4677425	TO_CACHE:   10621603

STLB TOTAL     ACCESS:    1447814  HIT:    1381689  MISS:      66125  HIT %:    95.4328  MISS %:    4.56723   MPKI: 1.3225
STLB LOAD TRANSLATION ACCESS:     451279  HIT:     386154  MISS:      65125  HIT %:    85.5688  MISS %:    14.4312   MPKI: 1.3025
STLB TRANSLATION FROM L1D PREFETCHER ACCESS:     996535  HIT:     995535  MISS:       1000  HIT %:    99.8997  MISS %:   0.100348   MPKI: 0.02
STLB PREFETCH  REQUESTED:          0  ISSUED:          0  USEFUL:        783  USELESS:        235
STLB USEFUL LOAD PREFETCHES:        783 PREFETCH ISSUED TO LOWER LEVEL:          0  ACCURACY: inf
STLB TIMELY PREFETCHES:        783 LATE PREFETCHES: 0 DROPPED PREFETCHES: 90
STLB PREFETCHES SAME FILL-ORIGIN LEVEL: 0 DIFFERENT FILL-ORIGIN LEVEL: 0
STLB AVERAGE MISS LATENCY: 103.912 cycles
STLB RQ	ACCESS:    1488631	FORWARD:          0	MERGED:      40726	TO_CACHE:    1447905

STLB Hit, L1D data hit: 0
STLB Hit, L2C data hit: 0
STLB Hit, LLC data hit: 0
STLB Hit, LLC data miss: 0
STLB STLB hints to L2: 0
L1D TOTAL     ACCESS:   13595987  HIT:   11725462  MISS:    1870525  HIT %:    86.2421  MISS %:    13.7579   MPKI: 37.4105
L1D LOAD      ACCESS:    7256547  HIT:    6616932  MISS:     639615  HIT %:    91.1857  MISS %:    8.81432   MPKI: 12.7923
L1D RFO       ACCESS:    5772252  HIT:    4857533  MISS:     914719  HIT %:    84.1532  MISS %:    15.8468   MPKI: 18.2944
L1D PREFETCH  ACCESS:     567188  HIT:     250997  MISS:     316191  HIT %:    44.2529  MISS %:    55.7471   MPKI: 6.32382
L1D PREFETCH  REQUESTED:    1282360  ISSUED:    1282360  USEFUL:     236739  USELESS:      79459
L1D USEFUL LOAD PREFETCHES:     236739 PREFETCH ISSUED TO LOWER LEVEL:     378577  ACCURACY: 62.5339
L1D TIMELY PREFETCHES:     236739 LATE PREFETCHES: 62380 DROPPED PREFETCHES: 0
L1D PREFETCHES SAME FILL-ORIGIN LEVEL: 378577 DIFFERENT FILL-ORIGIN LEVEL: 0
L1D AVERAGE MISS LATENCY: 2.54732e+06 cycles
L1D RQ	ACCESS:   10677878	FORWARD:          0	MERGED:    3274344	TO_CACHE:    7294077
L1D WQ	ACCESS:    8106889	FORWARD:     109457	MERGED:     101938	TO_CACHE:    8004951
L1D PQ	ACCESS:     641180	FORWARD:          0	MERGED:          0	TO_CACHE:     641180

L1D UNIQUE REGIONS ACCESSED: 0
L1D REGIONS CONFLICTS: 0
L1D Cross Page Prefetch Requests: 0
L1D Same Page Prefetch Requests: 1324289
L1D ROI Sum of L1D PQ occupancy: 9227875
L1D PREFETCHES PUSHED FROM L2C: 0
L1I TOTAL     ACCESS:   13990947  HIT:   11200693  MISS:    2790254  HIT %:    80.0567  MISS %:    19.9433   MPKI: 55.8051
L1I LOAD      ACCESS:    9639814  HIT:    9621689  MISS:      18125  HIT %:     99.812  MISS %:   0.188022   MPKI: 0.3625
L1I PREFETCH  ACCESS:    4351133  HIT:    1579004  MISS:    2772129  HIT %:    36.2895  MISS %:    63.7105   MPKI: 55.4426
L1I PREFETCH  REQUESTED:    4580369  ISSUED:    4569665  USEFUL:    2321248  USELESS:     450911
L1I USEFUL LOAD PREFETCHES:    2321248 PREFETCH ISSUED TO LOWER LEVEL:    2778050  ACCURACY: 83.5567
L1I TIMELY PREFETCHES:    2321248 LATE PREFETCHES: 5917 DROPPED PREFETCHES: 157
L1I PREFETCHES SAME FILL-ORIGIN LEVEL: 2778050 DIFFERENT FILL-ORIGIN LEVEL: 0
L1I AVERAGE MISS LATENCY: 155121 cycles
L1I RQ	ACCESS:   13988089	FORWARD:          0	MERGED:    4344053	TO_CACHE:    9644036
L1I PQ	ACCESS:    4569665	FORWARD:          0	MERGED:     164537	TO_CACHE:    4405128

BTB TOTAL     ACCESS:    5496535  HIT:    5258217  MISS:     238318  HIT %:    95.6642  MISS %:    4.33579   MPKI: 4.76636
BTB BRANCH_DIRECT_JUMP	ACCESS:     462382  HIT:     460596  MISS:       1786
BTB BRANCH_INDIRECT	ACCESS:      45460  HIT:      45289  MISS:        171
BTB BRANCH_CONDITIONAL	ACCESS:    3246751  HIT:    3240930  MISS:       5821
BTB BRANCH_DIRECT_CALL	ACCESS:     666239  HIT:     662428  MISS:       3811
BTB BRANCH_INDIRECT_CALL	ACCESS:     204728  HIT:     179061  MISS:      25667
BTB BRANCH_RETURN	ACCESS:     870975  HIT:     669913  MISS:     201062
BTB BRANCH_OTHER ACCESS:          0  HIT:          0  MISS:          0

L2C TOTAL     ACCESS:    6055280  HIT:    4184419  MISS:    1870861  HIT %:    69.1036  MISS %:    30.8964   MPKI: 37.4172
L2C LOAD      ACCESS:     589435  HIT:     174839  MISS:     414596  HIT %:    29.6621  MISS %:    70.3379   MPKI: 8.29192
L2C DATA LOAD MPKI: 8.17874
L2C INSTRUCTION LOAD MPKI: 0.11318
L2C RFO       ACCESS:     914710  HIT:      35468  MISS:     879242  HIT %:    3.87751  MISS %:    96.1225   MPKI: 17.5848
L2C PREFETCH  ACCESS:    3296088  HIT:    2791644  MISS:     504444  HIT %:    84.6957  MISS %:    15.3043   MPKI: 10.0889
L2C DATA PREFETCH MPKI: 7.34386
L2C INSTRUCTION PREFETCH MPKI: 2.74502
L2C WRITEBACK ACCESS:    1162211  HIT:    1120761  MISS:      41450  HIT %:    96.4335  MISS %:    3.56648   MPKI: 0.829
L2C LOAD TRANSLATION ACCESS:      91196  HIT:      61098  MISS:      30098  HIT %:    66.9964  MISS %:    33.0036   MPKI: 0.60196
L2C TRANSLATION FROM L1D PREFETCHER ACCESS:       1640  HIT:        609  MISS:       1031  HIT %:    37.1341  MISS %:    62.8659   MPKI: 0.02062
L2C PREFETCH  REQUESTED:     338714  ISSUED:     338706  USEFUL:       9618  USELESS:     496646
L2C USEFUL LOAD PREFETCHES:       9618 PREFETCH ISSUED TO LOWER LEVEL:     505520  ACCURACY: 1.9026
L2C TIMELY PREFETCHES:       9618 LATE PREFETCHES: 1077 DROPPED PREFETCHES: 0
L2C PREFETCHES SAME FILL-ORIGIN LEVEL: 194226 DIFFERENT FILL-ORIGIN LEVEL: 0
L2C AVERAGE MISS LATENCY: 204.437 cycles
L2C RQ	ACCESS:    1596991	FORWARD:          0	MERGED:          0	TO_CACHE:    1596980
L2C WQ	ACCESS:    1162211	FORWARD:         11	MERGED:          0	TO_CACHE:    1162211
L2C PQ	ACCESS:    3495333	FORWARD:          0	MERGED:      45451	TO_CACHE:    3449882

L2C Instructions Evicting Data 128793
L2C Translations Evicting Data 28040
L2C Data Evicting Data 1503405
L2C Instructions Evicting Instructions 11610
L2C Translations Evicting Instructions 2614
L2C Data Evicting Instructions 124407
L2C Instructions Evicting Translations 2507
L2C Translations Evicting Translations 475
L2C Data Evicting Translations 27560
L2C Dense regions hint from L2: 0
PSCL5 TOTAL     ACCESS:      66215  HIT:      66215  MISS:          0  HIT %:        100  MISS %:          0   MPKI: 0
PSCL5 LOAD TRANSLATION ACCESS:      65125  HIT:      65125  MISS:          0  HIT %:        100  MISS %:          0   MPKI: 0
PSCL5 TRANSLATION FROM L1D PREFETCHER ACCESS:       1090  HIT:       1090  MISS:          0  HIT %:        100  MISS %:          0   MPKI: 0
PSCL5 PREFETCH  REQUESTED:          0  ISSUED:          0  USEFUL:          0  USELESS:          0
PSCL5 USEFUL LOAD PREFETCHES:          0 PREFETCH ISSUED TO LOWER LEVEL:          0  ACCURACY: -nan
PSCL5 TIMELY PREFETCHES:          0 LATE PREFETCHES: 0 DROPPED PREFETCHES: 0
PSCL5 PREFETCHES SAME FILL-ORIGIN LEVEL: 0 DIFFERENT FILL-ORIGIN LEVEL: 0

PSCL4 TOTAL     ACCESS:      65045  HIT:      64932  MISS:        113  HIT %:    99.8263  MISS %:   0.173726   MPKI: 0.00226
PSCL4 LOAD TRANSLATION ACCESS:      64030  HIT:      63917  MISS:        113  HIT %:    99.8235  MISS %:    0.17648   MPKI: 0.00226
PSCL4 TRANSLATION FROM L1D PREFETCHER ACCESS:       1015  HIT:       1015  MISS:          0  HIT %:        100  MISS %:          0   MPKI: 0
PSCL4 PREFETCH  REQUESTED:          0  ISSUED:          0  USEFUL:          0  USELESS:          0
PSCL4 USEFUL LOAD PREFETCHES:          0 PREFETCH ISSUED TO LOWER LEVEL:          0  ACCURACY: -nan
PSCL4 TIMELY PREFETCHES:          0 LATE PREFETCHES: 0 DROPPED PREFETCHES: 0
PSCL4 PREFETCHES SAME FILL-ORIGIN LEVEL: 0 DIFFERENT FILL-ORIGIN LEVEL: 0

PSCL3 TOTAL     ACCESS:      65823  HIT:      65349  MISS:        474  HIT %:    99.2799  MISS %:   0.720113   MPKI: 0.00948
PSCL3 LOAD TRANSLATION ACCESS:      64856  HIT:      64382  MISS:        474  HIT %:    99.2692  MISS %:    0.73085   MPKI: 0.00948
PSCL3 TRANSLATION FROM L1D PREFETCHER ACCESS:        967  HIT:        967  MISS:          0  HIT %:        100  MISS %:          0   MPKI: 0
PSCL3 PREFETCH  REQUESTED:          0  ISSUED:          0  USEFUL:          0  USELESS:          0
PSCL3 USEFUL LOAD PREFETCHES:          0 PREFETCH ISSUED TO LOWER LEVEL:          0  ACCURACY: -nan
PSCL3 TIMELY PREFETCHES:          0 LATE PREFETCHES: 0 DROPPED PREFETCHES: 0
PSCL3 PREFETCHES SAME FILL-ORIGIN LEVEL: 0 DIFFERENT FILL-ORIGIN LEVEL: 0

PSCL2 TOTAL     ACCESS:      66155  HIT:      40156  MISS:      25999  HIT %:    60.6999  MISS %:    39.3001   MPKI: 0.51998
PSCL2 LOAD TRANSLATION ACCESS:      65483  HIT:      39484  MISS:      25999  HIT %:    60.2966  MISS %:    39.7034   MPKI: 0.51998
PSCL2 TRANSLATION FROM L1D PREFETCHER ACCESS:        672  HIT:        672  MISS:          0  HIT %:        100  MISS %:          0   MPKI: 0
PSCL2 PREFETCH  REQUESTED:          0  ISSUED:          0  USEFUL:          0  USELESS:          0
PSCL2 USEFUL LOAD PREFETCHES:          0 PREFETCH ISSUED TO LOWER LEVEL:          0  ACCURACY: -nan
PSCL2 TIMELY PREFETCHES:          0 LATE PREFETCHES: 0 DROPPED PREFETCHES: 0
PSCL2 PREFETCHES SAME FILL-ORIGIN LEVEL: 0 DIFFERENT FILL-ORIGIN LEVEL: 0

LLC TOTAL     ACCESS:    2915187  HIT:    1455140  MISS:    1460047  HIT %:    49.9158  MISS %:    50.0842   MPKI: 29.2009
LLC LOAD      ACCESS:     413568  HIT:     216983  MISS:     196585  HIT %:    52.4661  MISS %:    47.5339   MPKI: 3.9317
LLC RFO       ACCESS:     879190  HIT:     141882  MISS:     737308  HIT %:    16.1378  MISS %:    83.8622   MPKI: 14.7462
LLC PREFETCH  ACCESS:     505521  HIT:     148258  MISS:     357263  HIT %:    29.3278  MISS %:    70.6722   MPKI: 7.14526
LLC WRITEBACK ACCESS:    1085779  HIT:     929828  MISS:     155951  HIT %:    85.6369  MISS %:    14.3631   MPKI: 3.11902
LLC LOAD TRANSLATION ACCESS:      30098  HIT:      17688  MISS:      12410  HIT %:     58.768  MISS %:     41.232   MPKI: 0.2482
LLC TRANSLATION FROM L1D PREFETCHER ACCESS:       1031  HIT:        501  MISS:        530  HIT %:    48.5936  MISS %:    51.4064   MPKI: 0.0106
LLC PREFETCH  REQUESTED:          0  ISSUED:          0  USEFUL:       3556  USELESS:     356133
LLC USEFUL LOAD PREFETCHES:       3556 PREFETCH ISSUED TO LOWER LEVEL:     357263  ACCURACY: 0.995345
LLC TIMELY PREFETCHES:       3556 LATE PREFETCHES: 0 DROPPED PREFETCHES: 0
LLC PREFETCHES SAME FILL-ORIGIN LEVEL: 0 DIFFERENT FILL-ORIGIN LEVEL: 0
LLC AVERAGE MISS LATENCY: 222.796 cycles
LLC RQ	ACCESS:    1323889	FORWARD:          0	MERGED:          0	TO_CACHE:    1323886
LLC WQ	ACCESS:    1085779	FORWARD:          3	MERGED:          0	TO_CACHE:    1085779
LLC PQ	ACCESS:     505520	FORWARD:          0	MERGED:          0	TO_CACHE:     505520

LLC Dense regions hint to LLC: 0

RAW hits: 1306067
Loads Generated: 11983945
Loads sent to L1D: 10677878
Stores Generated: 8106877
Stores sent to L1D: 8106889
Major fault: 0 Minor fault: 25901
Allocated PAGES: 25901
I-Shadow cache 408 bytes
Touched + WorthPF tables 6144 bytes 
MMA filter 174 bytes 
FNL filter 272 bytes 
TOTAL PREFETCHER STORAGE SIZE: 25174 bytes
CPU 0 L1I next line prefetcher final stats

stream: 
stream:times selected: 3673573
stream:pref_filled: 119161
stream:pref_useful: 27217
stream:pref_late: 6742
stream:misses: 32469
stream:misses_by_poll: 0

CS: 
CS:times selected: 3196426
CS:pref_filled: 555412
CS:pref_useful: 536593
CS:pref_late: 54347
CS:misses: 67369
CS:misses_by_poll: 537

CPLX: 
CPLX:times selected: 471541
CPLX:pref_filled: 20953
CPLX:pref_useful: 1366
CPLX:pref_late: 421
CPLX:misses: 100141
CPLX:misses_by_poll: 4

NL_L1: 
NL:times selected: 2782
NL:pref_filled: 764
NL:pref_useful: 15
NL:pref_late: 4
NL:misses: 1083
NL:misses_by_poll: 0

total selections: 7344322
total_filled: 316191
total_useful: 236739
total_late: 64974
total_polluted: 541
total_misses_after_warmup: 677145
conflicts: 2327687
Degree Incremented Times: 72166
Degree Decremented Times: 121220

L1 IP Table Write Accesses: 4779027
L1 IP Table Read Accesses: 2451340
L1 RST Write Accesses: 1812155
L1 RST Read Accesses: 3624310
L1 CSPT Write Accesses: 1812155
L1 CSPT Read Accesses: 2143043
L1 RR Filter Tag Write Accesses: 641180
L1 RR Filter Tag Read Accesses: 158945548
L1 IP Table Tag Write Accesses: 7294077
L1 IP Table Tag Read Accesses: 7294077
L1 RST Tag Write Accesses: 0
L1 RST Tag Read Accesses: 16369763
L1 RR Filter Write Accesses: 0
L1 RR Filter Read Accesses: 5127467
test: 286314
L2 IP Table Read Accesses: 3961505
L2 IP Table Write Accesses: 6958465
L2 IP Table Tag Read Accesses: 3577124
L2 IP Table Tag Write Accesses: 3577124

DRAM Statistics
 CHANNEL 0
 RQ ROW_BUFFER_HIT:     398148  ROW_BUFFER_MISS:     905861
 DBUS_CONGESTED:        467
 WQ ROW_BUFFER_HIT:     258812  ROW_BUFFER_MISS:     607379  FULL:       4736

 AVG_CONGESTED_CYCLE: 3
 All warmup complete: 2
Channel 0 Bank busy for read cycles: 0
Channel 0 Bank busy for write cycles: 0
Channel 0
Rank 0
0banks busy for read cycles: 25743455
0banks busy for write cycles: 40009
1banks busy for read cycles: 18819895
1banks busy for write cycles: 6127033
2banks busy for read cycles: 12105559
2banks busy for write cycles: 3853072
3banks busy for read cycles: 7052017
3banks busy for write cycles: 2876263
4banks busy for read cycles: 6226375
4banks busy for write cycles: 2391390
5banks busy for read cycles: 1836753
5banks busy for write cycles: 2010722
6banks busy for read cycles: 1491606
6banks busy for write cycles: 1713102
7banks busy for read cycles: 1373375
7banks busy for write cycles: 2245074
8banks busy for read cycles: 5201847
8banks busy for write cycles: 12561410

CPU 0 Branch Prediction Accuracy: 99.2186% MPKI: 1.3219 Average ROB Occupancy at Mispredict: 136.606
Branch types
NOT_BRANCH: 41540709 83.0814%
BRANCH_DIRECT_JUMP: 462382 0.924764%
BRANCH_INDIRECT: 45460 0.09092%
BRANCH_CONDITIONAL: 6209260 12.4185%
BRANCH_DIRECT_CALL: 666239 1.33248%
BRANCH_INDIRECT_CALL: 204728 0.409456%
BRANCH_RETURN: 870975 1.74195%
BRANCH_OTHER: 0 0%

DRAM PAGES: 1048576
Allocated PAGES: 25901
