
*** ChampSim Multicore Out-of-Order Simulator ***

Warmup Instructions: 50000000
Simulation Instructions: 50000000
Number of CPUs: 1
LLC sets: 2048
LLC ways: 16
Off-chip DRAM Size: 4096 MB Channels: 1 Width: 64-bit Data Rate: 6400 MT/s
CPU 0 runs ../IPC-traces//server_022.champsimtrace.xz
.xz
NUM_OF_IPS_IN_CRITICAL_IP_TRAINING: 64
NUM_OF_CRITICAL_IP_TRAINING_TABLE_WAYS: 2
NUM_OF_CRITICAL_IP_TRAINING_TABLE_SETS: 32
WOBBLY_CRITICAL_IP_CACHE_SETS: 32
WOBBLY_CRITICAL_IP_CACHE_WAYS: 4
BTB has LRU replacement policy
ITLB has LRU replacement policy
DTLB has LRU replacement policy
STLB has LRU replacement policy
CPU 0 L1I next line prefetcher
L1I has LRU replacement policy
IP Table Entries: 256
L1D has LRU replacement policy
Initialize SRRIP state for L2C
Initialize DRRIP state for LLC
Heartbeat CPU 0 instructions: 10000001 cycles: 3295423 heartbeat IPC: 3.03451 cumulative IPC: 3.03451 (Simulation time: 0 hr 2 min 4 sec) 
Heartbeat CPU 0 instructions: 20000000 cycles: 6600749 heartbeat IPC: 3.02542 cumulative IPC: 3.02996 (Simulation time: 0 hr 4 min 10 sec) 
Heartbeat CPU 0 instructions: 30000002 cycles: 9898937 heartbeat IPC: 3.03197 cumulative IPC: 3.03063 (Simulation time: 0 hr 6 min 16 sec) 
Heartbeat CPU 0 instructions: 40000003 cycles: 13199647 heartbeat IPC: 3.02965 cumulative IPC: 3.03038 (Simulation time: 0 hr 8 min 23 sec) 
Heartbeat CPU 0 instructions: 50000003 cycles: 16496762 heartbeat IPC: 3.03295 cumulative IPC: 3.0309 (Simulation time: 0 hr 10 min 20 sec) 

Warmup complete CPU 0 instructions: 50000003 cycles: 16496762 (Simulation time: 0 hr 10 min 20 sec) 

Heartbeat CPU 0 instructions: 60000000 cycles: 35030722 heartbeat IPC: 0.53955 cumulative IPC: 0.53955 (Simulation time: 0 hr 13 min 26 sec) 
Heartbeat CPU 0 instructions: 70000001 cycles: 52822930 heartbeat IPC: 0.562044 cumulative IPC: 0.550567 (Simulation time: 0 hr 16 min 28 sec) 
Heartbeat CPU 0 instructions: 80000000 cycles: 70299900 heartbeat IPC: 0.572182 cumulative IPC: 0.557588 (Simulation time: 0 hr 19 min 29 sec) 
Heartbeat CPU 0 instructions: 90000003 cycles: 87882227 heartbeat IPC: 0.568753 cumulative IPC: 0.560338 (Simulation time: 0 hr 23 min 7 sec) 
Heartbeat CPU 0 instructions: 100000000 cycles: 105479881 heartbeat IPC: 0.568257 cumulative IPC: 0.561904 (Simulation time: 0 hr 27 min 40 sec) 
Finished CPU 0 instructions: 50000001 cycles: 88983120 cumulative IPC: 0.561904 (Simulation time: 0 hr 27 min 40 sec) 

ChampSim completed all CPUs

Region of Interest Statistics

CPU 0 cumulative IPC: 0.561904 instructions: 50000001 cycles: 88983120

CPU 0 Average Load ROB stall cycles: 2.783e+07
CPU 0 Fraction of times ROB stalled by Loads: 45.2657
CPU 0 Percentage of Load stall cycles in Total stall cycles: 2.78701e+08
Issued all: 47880163
Issued LT all: 42578152
rob_not_full_when_issued_lt_all: 16880393
Issued LT one: 36760127
rob_not_full_when_issued_lt_one: 12841502
 Total stall cycles: 71441608
 Total load stall cycles: 199108826020262
CPU 0 NUM of IPS identified critical: 0
CPU 0 Num of Load IPs stalling ROB: 4814
Threshold modification factor: 0
Max PIST entries: 64
Min PIST entries: 0
Avg PIST entries: 32
Trouble in retire width: 0.798797
MaC = Marked as critical.
lt_50_percent_before_Mac: 0
gt_90_percent_before_Mac: 0
gt_75_percent_before_Mac: 0
gt_50_percent_before_Mac: 0
stall_proportion_bin_same_before_after: 0
stall_proportion_bin_lower_before_after: 0
stall_proportion_bin_upper_before_after: 0
average_stall_proportion_before: -nan
average_stall_proportion_after: -nan
Critical IP stalls, total frequency: 0
Non-critical IP stalls, total frequency: 3238511
Total Freq all stalling IPs: 3238511
stat_90_percent_critical_ip_stalls_freq: 2915234
stat_90_percent_non_critical_ip_stalls_freq: 323277
Critical_IP_ROB_Stalls_Bucket_0: 0
Non-critical_IP_ROB_Stalls_Bucket_0: 504675
Critical_IP_ROB_Stalls_Bucket_1: 0
Non-critical_IP_ROB_Stalls_Bucket_1: 619692
Critical_IP_ROB_Stalls_Bucket_2: 0
Non-critical_IP_ROB_Stalls_Bucket_2: 428342
Critical_IP_ROB_Stalls_Bucket_3: 0
Non-critical_IP_ROB_Stalls_Bucket_3: 264613
Critical_IP_ROB_Stalls_Bucket_4: 0
Non-critical_IP_ROB_Stalls_Bucket_4: 167886
Critical_IP_ROB_Stalls_Bucket_5: 0
Non-critical_IP_ROB_Stalls_Bucket_5: 150669
Critical_IP_ROB_Stalls_Bucket_6: 0
Non-critical_IP_ROB_Stalls_Bucket_6: 1102634
0 => IPs accounting for >50 percent of stalls, 1 => 55, 2 => 60, 3 => 65 and so on till 90.
percent50: 50.2813 num IPs:  12
percent55: 55.0612 num IPs: 30
percent60: 60.1373 num IPs: 62
percent65: 65.0723 num IPs: 108
percent70: 70.0733 num IPs: 175
percent75: 75.039 num IPs: 242
percent80: 80.0117 num IPs: 311
percent85: 85.0006 num IPs: 387
percent90: 90.0177 num IPs: 485
Critical_ROB_Stalls_Percent_0_Bucket_0: 52599
Non-critical_ROB_Stalls_Percent_0_Bucket_0: 452076
Critical_ROB_Stalls_Percent_0_Bucket_1: 114022
Non-critical_ROB_Stalls_Percent_0_Bucket_1: 505670
Critical_ROB_Stalls_Percent_0_Bucket_2: 121596
Non-critical_ROB_Stalls_Percent_0_Bucket_2: 306746
Critical_ROB_Stalls_Percent_0_Bucket_3: 136585
Non-critical_ROB_Stalls_Percent_0_Bucket_3: 128028
Critical_ROB_Stalls_Percent_0_Bucket_4: 111676
Non-critical_ROB_Stalls_Percent_0_Bucket_4: 56210
Critical_ROB_Stalls_Percent_0_Bucket_5: 105588
Non-critical_ROB_Stalls_Percent_0_Bucket_5: 45081
Critical_ROB_Stalls_Percent_0_Bucket_6: 986299
Non-critical_ROB_Stalls_Percent_0_Bucket_6: 116335
Critical_ROB_Stalls_Percent_1_Bucket_0: 127032
Non-critical_ROB_Stalls_Percent_1_Bucket_0: 377643
Critical_ROB_Stalls_Percent_1_Bucket_1: 158078
Non-critical_ROB_Stalls_Percent_1_Bucket_1: 461614
Critical_ROB_Stalls_Percent_1_Bucket_2: 140816
Non-critical_ROB_Stalls_Percent_1_Bucket_2: 287526
Critical_ROB_Stalls_Percent_1_Bucket_3: 143618
Non-critical_ROB_Stalls_Percent_1_Bucket_3: 120995
Critical_ROB_Stalls_Percent_1_Bucket_4: 114586
Non-critical_ROB_Stalls_Percent_1_Bucket_4: 53300
Critical_ROB_Stalls_Percent_1_Bucket_5: 108533
Non-critical_ROB_Stalls_Percent_1_Bucket_5: 42136
Critical_ROB_Stalls_Percent_1_Bucket_6: 990500
Non-critical_ROB_Stalls_Percent_1_Bucket_6: 112134
Critical_ROB_Stalls_Percent_2_Bucket_0: 173120
Non-critical_ROB_Stalls_Percent_2_Bucket_0: 331555
Critical_ROB_Stalls_Percent_2_Bucket_1: 195199
Non-critical_ROB_Stalls_Percent_2_Bucket_1: 424493
Critical_ROB_Stalls_Percent_2_Bucket_2: 176086
Non-critical_ROB_Stalls_Percent_2_Bucket_2: 252256
Critical_ROB_Stalls_Percent_2_Bucket_3: 150673
Non-critical_ROB_Stalls_Percent_2_Bucket_3: 113940
Critical_ROB_Stalls_Percent_2_Bucket_4: 120848
Non-critical_ROB_Stalls_Percent_2_Bucket_4: 47038
Critical_ROB_Stalls_Percent_2_Bucket_5: 116350
Non-critical_ROB_Stalls_Percent_2_Bucket_5: 34319
Critical_ROB_Stalls_Percent_2_Bucket_6: 1015277
Non-critical_ROB_Stalls_Percent_2_Bucket_6: 87357
Critical_ROB_Stalls_Percent_3_Bucket_0: 215826
Non-critical_ROB_Stalls_Percent_3_Bucket_0: 288849
Critical_ROB_Stalls_Percent_3_Bucket_1: 237991
Non-critical_ROB_Stalls_Percent_3_Bucket_1: 381701
Critical_ROB_Stalls_Percent_3_Bucket_2: 205769
Non-critical_ROB_Stalls_Percent_3_Bucket_2: 222573
Critical_ROB_Stalls_Percent_3_Bucket_3: 160758
Non-critical_ROB_Stalls_Percent_3_Bucket_3: 103855
Critical_ROB_Stalls_Percent_3_Bucket_4: 126292
Non-critical_ROB_Stalls_Percent_3_Bucket_4: 41594
Critical_ROB_Stalls_Percent_3_Bucket_5: 123488
Non-critical_ROB_Stalls_Percent_3_Bucket_5: 27181
Critical_ROB_Stalls_Percent_3_Bucket_6: 1037249
Non-critical_ROB_Stalls_Percent_3_Bucket_6: 65385
Critical_ROB_Stalls_Percent_4_Bucket_0: 231091
Non-critical_ROB_Stalls_Percent_4_Bucket_0: 273584
Critical_ROB_Stalls_Percent_4_Bucket_1: 296762
Non-critical_ROB_Stalls_Percent_4_Bucket_1: 322930
Critical_ROB_Stalls_Percent_4_Bucket_2: 246564
Non-critical_ROB_Stalls_Percent_4_Bucket_2: 181778
Critical_ROB_Stalls_Percent_4_Bucket_3: 180469
Non-critical_ROB_Stalls_Percent_4_Bucket_3: 84144
Critical_ROB_Stalls_Percent_4_Bucket_4: 139711
Non-critical_ROB_Stalls_Percent_4_Bucket_4: 28175
Critical_ROB_Stalls_Percent_4_Bucket_5: 132595
Non-critical_ROB_Stalls_Percent_4_Bucket_5: 18074
Critical_ROB_Stalls_Percent_4_Bucket_6: 1042141
Non-critical_ROB_Stalls_Percent_4_Bucket_6: 60493
Critical_ROB_Stalls_Percent_5_Bucket_0: 263358
Non-critical_ROB_Stalls_Percent_5_Bucket_0: 241317
Critical_ROB_Stalls_Percent_5_Bucket_1: 355813
Non-critical_ROB_Stalls_Percent_5_Bucket_1: 263879
Critical_ROB_Stalls_Percent_5_Bucket_2: 284275
Non-critical_ROB_Stalls_Percent_5_Bucket_2: 144067
Critical_ROB_Stalls_Percent_5_Bucket_3: 204276
Non-critical_ROB_Stalls_Percent_5_Bucket_3: 60337
Critical_ROB_Stalls_Percent_5_Bucket_4: 146095
Non-critical_ROB_Stalls_Percent_5_Bucket_4: 21791
Critical_ROB_Stalls_Percent_5_Bucket_5: 133118
Non-critical_ROB_Stalls_Percent_5_Bucket_5: 17551
Critical_ROB_Stalls_Percent_5_Bucket_6: 1043212
Non-critical_ROB_Stalls_Percent_5_Bucket_6: 59422
Critical_ROB_Stalls_Percent_6_Bucket_0: 310183
Non-critical_ROB_Stalls_Percent_6_Bucket_0: 194492
Critical_ROB_Stalls_Percent_6_Bucket_1: 422369
Non-critical_ROB_Stalls_Percent_6_Bucket_1: 197323
Critical_ROB_Stalls_Percent_6_Bucket_2: 310101
Non-critical_ROB_Stalls_Percent_6_Bucket_2: 118241
Critical_ROB_Stalls_Percent_6_Bucket_3: 211764
Non-critical_ROB_Stalls_Percent_6_Bucket_3: 52849
Critical_ROB_Stalls_Percent_6_Bucket_4: 149064
Non-critical_ROB_Stalls_Percent_6_Bucket_4: 18822
Critical_ROB_Stalls_Percent_6_Bucket_5: 136060
Non-critical_ROB_Stalls_Percent_6_Bucket_5: 14609
Critical_ROB_Stalls_Percent_6_Bucket_6: 1051649
Non-critical_ROB_Stalls_Percent_6_Bucket_6: 50985
Critical_ROB_Stalls_Percent_7_Bucket_0: 350345
Non-critical_ROB_Stalls_Percent_7_Bucket_0: 154330
Critical_ROB_Stalls_Percent_7_Bucket_1: 465092
Non-critical_ROB_Stalls_Percent_7_Bucket_1: 154600
Critical_ROB_Stalls_Percent_7_Bucket_2: 352348
Non-critical_ROB_Stalls_Percent_7_Bucket_2: 75994
Critical_ROB_Stalls_Percent_7_Bucket_3: 230297
Non-critical_ROB_Stalls_Percent_7_Bucket_3: 34316
Critical_ROB_Stalls_Percent_7_Bucket_4: 155184
Non-critical_ROB_Stalls_Percent_7_Bucket_4: 12702
Critical_ROB_Stalls_Percent_7_Bucket_5: 138150
Non-critical_ROB_Stalls_Percent_7_Bucket_5: 12519
Critical_ROB_Stalls_Percent_7_Bucket_6: 1061339
Non-critical_ROB_Stalls_Percent_7_Bucket_6: 41295
Critical_ROB_Stalls_Percent_8_Bucket_0: 402630
Non-critical_ROB_Stalls_Percent_8_Bucket_0: 102045
Critical_ROB_Stalls_Percent_8_Bucket_1: 521269
Non-critical_ROB_Stalls_Percent_8_Bucket_1: 98423
Critical_ROB_Stalls_Percent_8_Bucket_2: 375185
Non-critical_ROB_Stalls_Percent_8_Bucket_2: 53157
Critical_ROB_Stalls_Percent_8_Bucket_3: 237407
Non-critical_ROB_Stalls_Percent_8_Bucket_3: 27206
Critical_ROB_Stalls_Percent_8_Bucket_4: 158041
Non-critical_ROB_Stalls_Percent_8_Bucket_4: 9845
Critical_ROB_Stalls_Percent_8_Bucket_5: 143411
Non-critical_ROB_Stalls_Percent_8_Bucket_5: 7258
Critical_ROB_Stalls_Percent_8_Bucket_6: 1077291
Non-critical_ROB_Stalls_Percent_8_Bucket_6: 25343
Average ROB occupancy Load Stall Begin: 184.076
Average ROB occupancy Load Stall End: 192.428
Min ROB occupancy Load Stall Begin: 1
Max ROB occupancy Load Stall Begin: 352
Min ROB occupancy Load Stall End: 1
Max ROB occupancy Load Stall End: 352
Average ROB occupancy Critical Load Stall Begin: -nan
Average ROB occupancy Critical Load Stall End: -nan
Min ROB occupancy Critical Load Stall Begin: 400
Max ROB occupancy Critical Load Stall Begin: 0
Min ROB occupancy Critical Load Stall End: 400
Max ROB occupancy Critical Load Stall End: 0
 ROB Load Stall Begin Bucket Count 0: 713735
 ROB Load Stall End Bucket Count 0: 504675
 ROB Critical Load Stall Begin Bucket Count 0: 0
 ROB Critical Load Stall End Bucket Count 0: 0
 ROB Load Stall Begin Bucket Count 1: 540828
 ROB Load Stall End Bucket Count 1: 619692
 ROB Critical Load Stall Begin Bucket Count 1: 0
 ROB Critical Load Stall End Bucket Count 1: 0
 ROB Load Stall Begin Bucket Count 2: 379297
 ROB Load Stall End Bucket Count 2: 428342
 ROB Critical Load Stall Begin Bucket Count 2: 0
 ROB Critical Load Stall End Bucket Count 2: 0
 ROB Load Stall Begin Bucket Count 3: 222984
 ROB Load Stall End Bucket Count 3: 264613
 ROB Critical Load Stall Begin Bucket Count 3: 0
 ROB Critical Load Stall End Bucket Count 3: 0
 ROB Load Stall Begin Bucket Count 4: 155082
 ROB Load Stall End Bucket Count 4: 167886
 ROB Critical Load Stall Begin Bucket Count 4: 0
 ROB Critical Load Stall End Bucket Count 4: 0
 ROB Load Stall Begin Bucket Count 5: 151654
 ROB Load Stall End Bucket Count 5: 150669
 ROB Critical Load Stall Begin Bucket Count 5: 0
 ROB Critical Load Stall End Bucket Count 5: 0
 ROB Load Stall Begin Bucket Count 6: 1074931
 ROB Load Stall End Bucket Count 6: 1102634
 ROB Critical Load Stall Begin Bucket Count 6: 0
 ROB Critical Load Stall End Bucket Count 6: 0
PIST Tag Read Accesses: 2494534
PIST Read Accesses: 1247267
PIST Tag Write Accesses: 2494534
PIST Write Accesses: 1247267
Criticality detector called times: 1769192
Max global_stall_cycles_count: 3692594
Threshold Modified: 0 times, factor: 0
Sturdy critical IP cache stats: 
 Unused entries: 0
CIC Tag Read Accesses: 0
CIC Read Accesses: 0
CIC Tag Write Accesses: 0
CIC Write Accesses: 0
Wobbly critical IP cache stats: 
 Unused entries: 121
CIC Tag Read Accesses: 173665526
CIC Read Accesses: 0
CIC Tag Write Accesses: 7
CIC Write Accesses: 0
ITLB TOTAL     ACCESS:   10344912  HIT:    9861268  MISS:     483644  HIT %:    95.3248  MISS %:    4.67519   MPKI: 9.67288
ITLB LOAD TRANSLATION ACCESS:    8398945  HIT:    8387694  MISS:      11251  HIT %:     99.866  MISS %:   0.133957   MPKI: 0.22502
ITLB TRANSLATION FROM L1D PREFETCHER ACCESS:    1945967  HIT:    1473574  MISS:     472393  HIT %:    75.7245  MISS %:    24.2755   MPKI: 9.44786
ITLB PREFETCH  REQUESTED:          0  ISSUED:          0  USEFUL:     425543  USELESS:      46852
ITLB USEFUL LOAD PREFETCHES:     425543 PREFETCH ISSUED TO LOWER LEVEL:          0  ACCURACY: inf
ITLB TIMELY PREFETCHES:     425543 LATE PREFETCHES: 167 DROPPED PREFETCHES: 0
ITLB PREFETCHES SAME FILL-ORIGIN LEVEL: 0 DIFFERENT FILL-ORIGIN LEVEL: 0
ITLB AVERAGE MISS LATENCY: 20438.7 cycles
ITLB RQ	ACCESS:   14937250	FORWARD:          0	MERGED:    4542642	TO_CACHE:   10394608

DTLB TOTAL     ACCESS:   10884521  HIT:   10474239  MISS:     410282  HIT %:    96.2306  MISS %:    3.76941   MPKI: 8.20564
DTLB LOAD TRANSLATION ACCESS:   10884521  HIT:   10474239  MISS:     410282  HIT %:    96.2306  MISS %:    3.76941   MPKI: 8.20564
DTLB PREFETCH  REQUESTED:          0  ISSUED:          0  USEFUL:          0  USELESS:          0
DTLB USEFUL LOAD PREFETCHES:          0 PREFETCH ISSUED TO LOWER LEVEL:          0  ACCURACY: -nan
DTLB TIMELY PREFETCHES:          0 LATE PREFETCHES: 0 DROPPED PREFETCHES: 0
DTLB PREFETCHES SAME FILL-ORIGIN LEVEL: 0 DIFFERENT FILL-ORIGIN LEVEL: 0
DTLB AVERAGE MISS LATENCY: 16.9768 cycles
DTLB RQ	ACCESS:   16220112	FORWARD:          0	MERGED:    5250183	TO_CACHE:   10969929

STLB TOTAL     ACCESS:    1449155  HIT:    1429614  MISS:      19541  HIT %:    98.6516  MISS %:    1.34844   MPKI: 0.39082
STLB LOAD TRANSLATION ACCESS:     421366  HIT:     402186  MISS:      19180  HIT %:    95.4481  MISS %:    4.55186   MPKI: 0.3836
STLB TRANSLATION FROM L1D PREFETCHER ACCESS:    1027789  HIT:    1027428  MISS:        361  HIT %:    99.9649  MISS %:  0.0351239   MPKI: 0.00722
STLB PREFETCH  REQUESTED:          0  ISSUED:          0  USEFUL:        158  USELESS:        204
STLB USEFUL LOAD PREFETCHES:        158 PREFETCH ISSUED TO LOWER LEVEL:          0  ACCURACY: inf
STLB TIMELY PREFETCHES:        158 LATE PREFETCHES: 0 DROPPED PREFETCHES: 0
STLB PREFETCHES SAME FILL-ORIGIN LEVEL: 0 DIFFERENT FILL-ORIGIN LEVEL: 0
STLB AVERAGE MISS LATENCY: 174.486 cycles
STLB RQ	ACCESS:    1520211	FORWARD:          0	MERGED:      71056	TO_CACHE:    1449155

STLB Hit, L1D data hit: 0
STLB Hit, L2C data hit: 0
STLB Hit, LLC data hit: 0
STLB Hit, LLC data miss: 0
STLB STLB hints to L2: 0
L1D TOTAL     ACCESS:   14348863  HIT:   12504789  MISS:    1844074  HIT %:    87.1483  MISS %:    12.8517   MPKI: 36.8815
L1D LOAD      ACCESS:    7388427  HIT:    6884869  MISS:     503558  HIT %:    93.1845  MISS %:     6.8155   MPKI: 10.0712
L1D RFO       ACCESS:    6345958  HIT:    5350187  MISS:     995771  HIT %:    84.3086  MISS %:    15.6914   MPKI: 19.9154
L1D PREFETCH  ACCESS:     614478  HIT:     269733  MISS:     344745  HIT %:    43.8963  MISS %:    56.1037   MPKI: 6.8949
L1D PREFETCH  REQUESTED:    1252570  ISSUED:    1252570  USEFUL:     320960  USELESS:      23769
L1D USEFUL LOAD PREFETCHES:     320960 PREFETCH ISSUED TO LOWER LEVEL:     355575  ACCURACY: 90.2651
L1D TIMELY PREFETCHES:     320960 LATE PREFETCHES: 10830 DROPPED PREFETCHES: 0
L1D PREFETCHES SAME FILL-ORIGIN LEVEL: 355575 DIFFERENT FILL-ORIGIN LEVEL: 0
L1D AVERAGE MISS LATENCY: 312663 cycles
L1D RQ	ACCESS:   11067813	FORWARD:          0	MERGED:    3516233	TO_CACHE:    7427414
L1D WQ	ACCESS:    8887929	FORWARD:     124166	MERGED:      95231	TO_CACHE:    8792698
L1D PQ	ACCESS:     626285	FORWARD:          0	MERGED:          0	TO_CACHE:     626285

L1D UNIQUE REGIONS ACCESSED: 0
L1D REGIONS CONFLICTS: 0
L1D Cross Page Prefetch Requests: 0
L1D Same Page Prefetch Requests: 626285
L1D ROI Sum of L1D PQ occupancy: 9909193
L1D PREFETCHES PUSHED FROM L2C: 0
L1I TOTAL     ACCESS:   14846216  HIT:   11644800  MISS:    3201416  HIT %:    78.4361  MISS %:    21.5639   MPKI: 64.0283
L1I LOAD      ACCESS:    9801940  HIT:    9783428  MISS:      18512  HIT %:    99.8111  MISS %:   0.188861   MPKI: 0.37024
L1I PREFETCH  ACCESS:    5044276  HIT:    1861372  MISS:    3182904  HIT %:    36.9007  MISS %:    63.0993   MPKI: 63.6581
L1I PREFETCH  REQUESTED:    5310286  ISSUED:    5302134  USEFUL:    2657460  USELESS:     525466
L1I USEFUL LOAD PREFETCHES:    2657460 PREFETCH ISSUED TO LOWER LEVEL:    3188805  ACCURACY: 83.3372
L1I TIMELY PREFETCHES:    2657460 LATE PREFETCHES: 5899 DROPPED PREFETCHES: 0
L1I PREFETCHES SAME FILL-ORIGIN LEVEL: 3188805 DIFFERENT FILL-ORIGIN LEVEL: 0
L1I AVERAGE MISS LATENCY: 115964 cycles
L1I RQ	ACCESS:   14103814	FORWARD:          0	MERGED:    4298434	TO_CACHE:    9805380
L1I PQ	ACCESS:    5302134	FORWARD:          0	MERGED:     170264	TO_CACHE:    5131870

BTB TOTAL     ACCESS:    5297027  HIT:    5037183  MISS:     259844  HIT %:    95.0945  MISS %:    4.90547   MPKI: 5.19688
BTB BRANCH_DIRECT_JUMP	ACCESS:     445734  HIT:     443706  MISS:       2028
BTB BRANCH_INDIRECT	ACCESS:      48875  HIT:      48765  MISS:        110
BTB BRANCH_CONDITIONAL	ACCESS:    2967685  HIT:    2961525  MISS:       6160
BTB BRANCH_DIRECT_CALL	ACCESS:     758262  HIT:     754131  MISS:       4131
BTB BRANCH_INDIRECT_CALL	ACCESS:     159103  HIT:     129311  MISS:      29792
BTB BRANCH_RETURN	ACCESS:     917368  HIT:     699745  MISS:     217623
BTB BRANCH_OTHER ACCESS:          0  HIT:          0  MISS:          0

L2C TOTAL     ACCESS:    6239376  HIT:    4430648  MISS:    1808728  HIT %:    71.0111  MISS %:    28.9889   MPKI: 36.1746
L2C LOAD      ACCESS:     505327  HIT:     173337  MISS:     331990  HIT %:    34.3019  MISS %:    65.6981   MPKI: 6.6398
L2C DATA LOAD MPKI: 6.56104
L2C INSTRUCTION LOAD MPKI: 0.07876
L2C RFO       ACCESS:     995765  HIT:      43918  MISS:     951847  HIT %:    4.41048  MISS %:    95.5895   MPKI: 19.0369
L2C PREFETCH  ACCESS:    3544378  HIT:    3073743  MISS:     470635  HIT %:    86.7216  MISS %:    13.2784   MPKI: 9.4127
L2C DATA PREFETCH MPKI: 6.33064
L2C INSTRUCTION PREFETCH MPKI: 3.08206
L2C WRITEBACK ACCESS:    1172296  HIT:    1127640  MISS:      44656  HIT %:    96.1907  MISS %:    3.80928   MPKI: 0.89312
L2C LOAD TRANSLATION ACCESS:      21082  HIT:      11894  MISS:       9188  HIT %:    56.4178  MISS %:    43.5822   MPKI: 0.18376
L2C TRANSLATION FROM L1D PREFETCHER ACCESS:        528  HIT:        116  MISS:        412  HIT %:    21.9697  MISS %:    78.0303   MPKI: 0.00824
L2C PREFETCH  REQUESTED:          0  ISSUED:          0  USEFUL:       2906  USELESS:     467623
L2C USEFUL LOAD PREFETCHES:       2906 PREFETCH ISSUED TO LOWER LEVEL:     470635  ACCURACY: 0.617464
L2C TIMELY PREFETCHES:       2906 LATE PREFETCHES: 0 DROPPED PREFETCHES: 0
L2C PREFETCHES SAME FILL-ORIGIN LEVEL: 0 DIFFERENT FILL-ORIGIN LEVEL: 0
L2C AVERAGE MISS LATENCY: 166.871 cycles
L2C RQ	ACCESS:    1522722	FORWARD:          0	MERGED:          0	TO_CACHE:    1522702
L2C WQ	ACCESS:    1172296	FORWARD:         20	MERGED:          0	TO_CACHE:    1172296
L2C PQ	ACCESS:    3544380	FORWARD:          0	MERGED:          0	TO_CACHE:    3544380

L2C Instructions Evicting Data 145594
L2C Translations Evicting Data 8760
L2C Data Evicting Data 1446066
L2C Instructions Evicting Instructions 11629
L2C Translations Evicting Instructions 796
L2C Data Evicting Instructions 141812
L2C Instructions Evicting Translations 818
L2C Translations Evicting Translations 44
L2C Data Evicting Translations 8553
L2C Dense regions hint from L2: 0
PSCL5 TOTAL     ACCESS:      19541  HIT:      19541  MISS:          0  HIT %:        100  MISS %:          0   MPKI: 0
PSCL5 LOAD TRANSLATION ACCESS:      19180  HIT:      19180  MISS:          0  HIT %:        100  MISS %:          0   MPKI: 0
PSCL5 TRANSLATION FROM L1D PREFETCHER ACCESS:        361  HIT:        361  MISS:          0  HIT %:        100  MISS %:          0   MPKI: 0
PSCL5 PREFETCH  REQUESTED:          0  ISSUED:          0  USEFUL:          0  USELESS:          0
PSCL5 USEFUL LOAD PREFETCHES:          0 PREFETCH ISSUED TO LOWER LEVEL:          0  ACCURACY: -nan
PSCL5 TIMELY PREFETCHES:          0 LATE PREFETCHES: 0 DROPPED PREFETCHES: 0
PSCL5 PREFETCHES SAME FILL-ORIGIN LEVEL: 0 DIFFERENT FILL-ORIGIN LEVEL: 0

PSCL4 TOTAL     ACCESS:      17447  HIT:      17422  MISS:         25  HIT %:    99.8567  MISS %:   0.143291   MPKI: 0.0005
PSCL4 LOAD TRANSLATION ACCESS:      17095  HIT:      17070  MISS:         25  HIT %:    99.8538  MISS %:   0.146242   MPKI: 0.0005
PSCL4 TRANSLATION FROM L1D PREFETCHER ACCESS:        352  HIT:        352  MISS:          0  HIT %:        100  MISS %:          0   MPKI: 0
PSCL4 PREFETCH  REQUESTED:          0  ISSUED:          0  USEFUL:          0  USELESS:          0
PSCL4 USEFUL LOAD PREFETCHES:          0 PREFETCH ISSUED TO LOWER LEVEL:          0  ACCURACY: -nan
PSCL4 TIMELY PREFETCHES:          0 LATE PREFETCHES: 0 DROPPED PREFETCHES: 0
PSCL4 PREFETCHES SAME FILL-ORIGIN LEVEL: 0 DIFFERENT FILL-ORIGIN LEVEL: 0

PSCL3 TOTAL     ACCESS:      19536  HIT:      19486  MISS:         50  HIT %:    99.7441  MISS %:   0.255938   MPKI: 0.001
PSCL3 LOAD TRANSLATION ACCESS:      19193  HIT:      19143  MISS:         50  HIT %:    99.7395  MISS %:   0.260512   MPKI: 0.001
PSCL3 TRANSLATION FROM L1D PREFETCHER ACCESS:        343  HIT:        343  MISS:          0  HIT %:        100  MISS %:          0   MPKI: 0
PSCL3 PREFETCH  REQUESTED:          0  ISSUED:          0  USEFUL:          0  USELESS:          0
PSCL3 USEFUL LOAD PREFETCHES:          0 PREFETCH ISSUED TO LOWER LEVEL:          0  ACCURACY: -nan
PSCL3 TIMELY PREFETCHES:          0 LATE PREFETCHES: 0 DROPPED PREFETCHES: 0
PSCL3 PREFETCHES SAME FILL-ORIGIN LEVEL: 0 DIFFERENT FILL-ORIGIN LEVEL: 0

PSCL2 TOTAL     ACCESS:      19541  HIT:      17518  MISS:       2023  HIT %:    89.6474  MISS %:    10.3526   MPKI: 0.04046
PSCL2 LOAD TRANSLATION ACCESS:      19320  HIT:      17297  MISS:       2023  HIT %:     89.529  MISS %:     10.471   MPKI: 0.04046
PSCL2 TRANSLATION FROM L1D PREFETCHER ACCESS:        221  HIT:        221  MISS:          0  HIT %:        100  MISS %:          0   MPKI: 0
PSCL2 PREFETCH  REQUESTED:          0  ISSUED:          0  USEFUL:          0  USELESS:          0
PSCL2 USEFUL LOAD PREFETCHES:          0 PREFETCH ISSUED TO LOWER LEVEL:          0  ACCURACY: -nan
PSCL2 TIMELY PREFETCHES:          0 LATE PREFETCHES: 0 DROPPED PREFETCHES: 0
PSCL2 PREFETCHES SAME FILL-ORIGIN LEVEL: 0 DIFFERENT FILL-ORIGIN LEVEL: 0

LLC TOTAL     ACCESS:    2851618  HIT:    1251599  MISS:    1600019  HIT %:    43.8908  MISS %:    56.1092   MPKI: 32.0004
LLC LOAD      ACCESS:     331990  HIT:     287631  MISS:      44359  HIT %:    86.6385  MISS %:    13.3615   MPKI: 0.88718
LLC RFO       ACCESS:     951846  HIT:     246454  MISS:     705392  HIT %:    25.8922  MISS %:    74.1078   MPKI: 14.1078
LLC PREFETCH  ACCESS:     470635  HIT:     159647  MISS:     310988  HIT %:    33.9216  MISS %:    66.0784   MPKI: 6.21976
LLC WRITEBACK ACCESS:    1087547  HIT:     555347  MISS:     532200  HIT %:    51.0642  MISS %:    48.9358   MPKI: 10.644
LLC LOAD TRANSLATION ACCESS:       9188  HIT:       2378  MISS:       6810  HIT %:    25.8816  MISS %:    74.1184   MPKI: 0.1362
LLC TRANSLATION FROM L1D PREFETCHER ACCESS:        412  HIT:        142  MISS:        270  HIT %:     34.466  MISS %:     65.534   MPKI: 0.0054
LLC PREFETCH  REQUESTED:          0  ISSUED:          0  USEFUL:        740  USELESS:     309650
LLC USEFUL LOAD PREFETCHES:        740 PREFETCH ISSUED TO LOWER LEVEL:     310988  ACCURACY: 0.237951
LLC TIMELY PREFETCHES:        740 LATE PREFETCHES: 0 DROPPED PREFETCHES: 0
LLC PREFETCHES SAME FILL-ORIGIN LEVEL: 0 DIFFERENT FILL-ORIGIN LEVEL: 0
LLC AVERAGE MISS LATENCY: 153.954 cycles
LLC RQ	ACCESS:    1293437	FORWARD:          0	MERGED:          0	TO_CACHE:    1293436
LLC WQ	ACCESS:    1087547	FORWARD:          1	MERGED:          0	TO_CACHE:    1087547
LLC PQ	ACCESS:     470635	FORWARD:          0	MERGED:          0	TO_CACHE:     470635

LLC Dense regions hint to LLC: 0

RAW hits: 1388922
Loads Generated: 12456735
Loads sent to L1D: 11067813
Stores Generated: 8887926
Stores sent to L1D: 8887929
Major fault: 0 Minor fault: 23677
Allocated PAGES: 23677
I-Shadow cache 408 bytes
Touched + WorthPF tables 6144 bytes 
MMA filter 174 bytes 
FNL filter 272 bytes 
TOTAL PREFETCHER STORAGE SIZE: 25174 bytes
CPU 0 L1I next line prefetcher final stats

stream: 
stream:times selected: 1478056
stream:pref_filled: 343360
stream:pref_useful: 319660
stream:pref_late: 9519
stream:misses: 0
stream:misses_by_poll: 0

CS: 
CS:times selected: 1477360
CS:pref_filled: 1312
CS:pref_useful: 1290
CS:pref_late: 496
CS:misses: 13650
CS:misses_by_poll: 3

CPLX: 
CPLX:times selected: 681
CPLX:pref_filled: 73
CPLX:pref_useful: 10
CPLX:pref_late: 1
CPLX:misses: 27
CPLX:misses_by_poll: 0

NL_L1: 
NL:times selected: 0
NL:pref_filled: 0
NL:pref_useful: 0
NL:pref_late: 0
NL:misses: 0
NL:misses_by_poll: 0

total selections: 2956097
total_filled: 344745
total_useful: 320960
total_late: 10830
total_polluted: 3
total_misses_after_warmup: 13680
conflicts: 7
Degree Incremented Times: 7214
Degree Decremented Times: 0

L1 IP Table Write Accesses: 1488707
L1 IP Table Read Accesses: 1488700
L1 RST Write Accesses: 1478058
L1 RST Read Accesses: 2956107
L1 CSPT Write Accesses: 1478058
L1 CSPT Read Accesses: 1480067
L1 RR Filter Tag Write Accesses: 626285
L1 RR Filter Tag Read Accesses: 374481592
L1 IP Table Tag Write Accesses: 1488707
L1 IP Table Tag Read Accesses: 1488707
L1 RST Tag Write Accesses: 56
L1 RST Tag Read Accesses: 13235968
L1 RR Filter Write Accesses: 0
L1 RR Filter Read Accesses: 12800516
test: 33815

DRAM Statistics
 CHANNEL 0
 RQ ROW_BUFFER_HIT:     474853  ROW_BUFFER_MISS:     592854
 DBUS_CONGESTED:        513
 WQ ROW_BUFFER_HIT:     159487  ROW_BUFFER_MISS:     562387  FULL:      15178

 AVG_CONGESTED_CYCLE: 3
 All warmup complete: 2
Channel 0 Bank busy for read cycles: 0
Channel 0 Bank busy for write cycles: 0
Channel 0
Rank 0
0banks busy for read cycles: 27326073
0banks busy for write cycles: 48739
1banks busy for read cycles: 11101627
1banks busy for write cycles: 6965922
2banks busy for read cycles: 9090713
2banks busy for write cycles: 2926910
3banks busy for read cycles: 4017999
3banks busy for write cycles: 1505072
4banks busy for read cycles: 2915045
4banks busy for write cycles: 1058494
5banks busy for read cycles: 970222
5banks busy for write cycles: 930926
6banks busy for read cycles: 1129111
6banks busy for write cycles: 924108
7banks busy for read cycles: 1770563
7banks busy for write cycles: 1626565
8banks busy for read cycles: 4730958
8banks busy for write cycles: 9944074

CPU 0 Branch Prediction Accuracy: 99.8317% MPKI: 0.27564 Average ROB Occupancy at Mispredict: 109.01
Branch types
NOT_BRANCH: 41810970 83.6219%
BRANCH_DIRECT_JUMP: 445734 0.891468%
BRANCH_INDIRECT: 48875 0.09775%
BRANCH_CONDITIONAL: 5859370 11.7187%
BRANCH_DIRECT_CALL: 758262 1.51652%
BRANCH_INDIRECT_CALL: 159103 0.318206%
BRANCH_RETURN: 917368 1.83474%
BRANCH_OTHER: 0 0%

DRAM PAGES: 1048576
Allocated PAGES: 23677
