
*** ChampSim Multicore Out-of-Order Simulator ***

Warmup Instructions: 50000000
Simulation Instructions: 50000000
Number of CPUs: 1
LLC sets: 2048
LLC ways: 16
Off-chip DRAM Size: 4096 MB Channels: 1 Width: 64-bit Data Rate: 6400 MT/s
CPU 0 runs ../IPC-traces//server_024.champsimtrace.xz
.xz
BTB has LRU replacement policy
ITLB has LRU replacement policy
DTLB has LRU replacement policy
STLB has LRU replacement policy
CPU 0 L1I next line prefetcher
L1I has LRU replacement policy
IP Table Entries: 64
L1D has LRU replacement policy
Initialize SRRIP state for L2C
Initialize DRRIP state for LLC
Heartbeat CPU 0 instructions: 10000000 cycles: 2875067 heartbeat IPC: 3.47818 cumulative IPC: 3.47818 (Simulation time: 0 hr 3 min 12 sec) 
Heartbeat CPU 0 instructions: 20000002 cycles: 5743982 heartbeat IPC: 3.48564 cumulative IPC: 3.48191 (Simulation time: 0 hr 5 min 54 sec) 
Heartbeat CPU 0 instructions: 30000002 cycles: 8615189 heartbeat IPC: 3.48286 cumulative IPC: 3.48222 (Simulation time: 0 hr 8 min 36 sec) 
Heartbeat CPU 0 instructions: 40000000 cycles: 11486488 heartbeat IPC: 3.48274 cumulative IPC: 3.48235 (Simulation time: 0 hr 10 min 51 sec) 
Heartbeat CPU 0 instructions: 50000001 cycles: 14354857 heartbeat IPC: 3.4863 cumulative IPC: 3.48314 (Simulation time: 0 hr 13 min 1 sec) 

Warmup complete CPU 0 instructions: 50000001 cycles: 14354857 (Simulation time: 0 hr 13 min 1 sec) 

Heartbeat CPU 0 instructions: 60000003 cycles: 30093622 heartbeat IPC: 0.635374 cumulative IPC: 0.635374 (Simulation time: 0 hr 15 min 32 sec) 
Heartbeat CPU 0 instructions: 70000000 cycles: 45804786 heartbeat IPC: 0.63649 cumulative IPC: 0.635931 (Simulation time: 0 hr 18 min 5 sec) 
*** Reached end of trace for Core: 0 Repeating trace: ../IPC-traces//server_024.champsimtrace.xz
Heartbeat CPU 0 instructions: 80000003 cycles: 61437853 heartbeat IPC: 0.63967 cumulative IPC: 0.637173 (Simulation time: 0 hr 20 min 40 sec) 
Heartbeat CPU 0 instructions: 90000003 cycles: 77151774 heartbeat IPC: 0.636378 cumulative IPC: 0.636974 (Simulation time: 0 hr 23 min 8 sec) 
Heartbeat CPU 0 instructions: 100000002 cycles: 92888879 heartbeat IPC: 0.635441 cumulative IPC: 0.636667 (Simulation time: 0 hr 25 min 50 sec) 
Finished CPU 0 instructions: 50000001 cycles: 78534022 cumulative IPC: 0.636667 (Simulation time: 0 hr 25 min 50 sec) 

ChampSim completed all CPUs

Region of Interest Statistics

CPU 0 cumulative IPC: 0.636667 instructions: 50000001 cycles: 78534022

CPU 0 Average Load ROB stall cycles: 1.96158e+07
CPU 0 Fraction of times ROB stalled by Loads: 36.5672
CPU 0 Percentage of Load stall cycles in Total stall cycles: 2.78157e+08
Issued all: 27867432
Issued LT all: 22033209
rob_not_full_when_issued_lt_all: 21516303
Issued LT one: 17048248
rob_not_full_when_issued_lt_one: 16596075
FVP critical_dynamic_instances_0: 2153122
FVP unique_critical_ips_0: 5920
 Total stall cycles: 65333933
 Total load stall cycles: 181731190085088
Unique Load IPs: 13758
CPU 0 NUM of IPS identified critical: 0
CPU 0 Num of Load IPs stalling ROB: 0
Threshold modification factor: 0
Trouble in retire width: -nan
MaC = Marked as critical.
lt_50_percent_before_Mac: 0
gt_90_percent_before_Mac: 0
gt_75_percent_before_Mac: 0
gt_50_percent_before_Mac: 0
stall_proportion_bin_same_before_after: 0
stall_proportion_bin_lower_before_after: 0
stall_proportion_bin_upper_before_after: 0
average_stall_proportion_before: -nan
average_stall_proportion_after: -nan
Critical IP stalls, total frequency: 0
Non-critical IP stalls, total frequency: 0
Total Freq all stalling IPs: 0
Critical_IP_Detector_Accuracy_70: 0.000168919
Critical_IP_Detector_Accuracy_80: 0.000168919
Critical_IP_Detector_Accuracy_90: 0.000168919
Critical_IP_Detector_Coverage_70: 1
Critical_IP_Detector_Coverage_80: 1
Critical_IP_Detector_Coverage_90: 1
stat_90_percent_critical_ip_stalls_freq: 102089
stat_90_percent_non_critical_ip_stalls_freq: 18446744073709449527
AVERAGE_ROB_Occupancy_90_Percent_Critical_IP_Stalls: 100.127
AVERAGE_ROB_Occupancy_90_Percent_Non_Critical_IP_Stalls: 8.14119e-12
Critical_IP_ROB_Stalls_Bucket_0: 0
Non-critical_IP_ROB_Stalls_Bucket_0: 2312924
Critical_IP_ROB_Stalls_Bucket_1: 0
Non-critical_IP_ROB_Stalls_Bucket_1: 719739
Critical_IP_ROB_Stalls_Bucket_2: 0
Non-critical_IP_ROB_Stalls_Bucket_2: 244029
Critical_IP_ROB_Stalls_Bucket_3: 0
Non-critical_IP_ROB_Stalls_Bucket_3: 56720
Critical_IP_ROB_Stalls_Bucket_4: 0
Non-critical_IP_ROB_Stalls_Bucket_4: 20301
Critical_IP_ROB_Stalls_Bucket_5: 0
Non-critical_IP_ROB_Stalls_Bucket_5: 10299
Critical_IP_ROB_Stalls_Bucket_6: 0
Non-critical_IP_ROB_Stalls_Bucket_6: 23757
0 => IPs accounting for >50 percent of stalls, 1 => 55, 2 => 60, 3 => 65 and so on till 90.
percent50: inf num IPs:  1
percent55: inf num IPs: 1
percent60: inf num IPs: 1
percent65: inf num IPs: 1
percent70: inf num IPs: 1
percent75: inf num IPs: 1
percent80: inf num IPs: 1
percent85: inf num IPs: 1
percent90: inf num IPs: 1
Critical_ROB_Stalls_Percent_0_Bucket_0: 2745
Non-critical_ROB_Stalls_Percent_0_Bucket_0: 2310179
Critical_ROB_Stalls_Percent_0_Bucket_1: 67977
Non-critical_ROB_Stalls_Percent_0_Bucket_1: 651762
Critical_ROB_Stalls_Percent_0_Bucket_2: 27907
Non-critical_ROB_Stalls_Percent_0_Bucket_2: 216122
Critical_ROB_Stalls_Percent_0_Bucket_3: 3458
Non-critical_ROB_Stalls_Percent_0_Bucket_3: 53262
Critical_ROB_Stalls_Percent_0_Bucket_4: 2
Non-critical_ROB_Stalls_Percent_0_Bucket_4: 20299
Critical_ROB_Stalls_Percent_0_Bucket_5: 0
Non-critical_ROB_Stalls_Percent_0_Bucket_5: 10299
Critical_ROB_Stalls_Percent_0_Bucket_6: 0
Non-critical_ROB_Stalls_Percent_0_Bucket_6: 23757
Critical_ROB_Stalls_Percent_1_Bucket_0: 2745
Non-critical_ROB_Stalls_Percent_1_Bucket_0: 2310179
Critical_ROB_Stalls_Percent_1_Bucket_1: 67977
Non-critical_ROB_Stalls_Percent_1_Bucket_1: 651762
Critical_ROB_Stalls_Percent_1_Bucket_2: 27907
Non-critical_ROB_Stalls_Percent_1_Bucket_2: 216122
Critical_ROB_Stalls_Percent_1_Bucket_3: 3458
Non-critical_ROB_Stalls_Percent_1_Bucket_3: 53262
Critical_ROB_Stalls_Percent_1_Bucket_4: 2
Non-critical_ROB_Stalls_Percent_1_Bucket_4: 20299
Critical_ROB_Stalls_Percent_1_Bucket_5: 0
Non-critical_ROB_Stalls_Percent_1_Bucket_5: 10299
Critical_ROB_Stalls_Percent_1_Bucket_6: 0
Non-critical_ROB_Stalls_Percent_1_Bucket_6: 23757
Critical_ROB_Stalls_Percent_2_Bucket_0: 2745
Non-critical_ROB_Stalls_Percent_2_Bucket_0: 2310179
Critical_ROB_Stalls_Percent_2_Bucket_1: 67977
Non-critical_ROB_Stalls_Percent_2_Bucket_1: 651762
Critical_ROB_Stalls_Percent_2_Bucket_2: 27907
Non-critical_ROB_Stalls_Percent_2_Bucket_2: 216122
Critical_ROB_Stalls_Percent_2_Bucket_3: 3458
Non-critical_ROB_Stalls_Percent_2_Bucket_3: 53262
Critical_ROB_Stalls_Percent_2_Bucket_4: 2
Non-critical_ROB_Stalls_Percent_2_Bucket_4: 20299
Critical_ROB_Stalls_Percent_2_Bucket_5: 0
Non-critical_ROB_Stalls_Percent_2_Bucket_5: 10299
Critical_ROB_Stalls_Percent_2_Bucket_6: 0
Non-critical_ROB_Stalls_Percent_2_Bucket_6: 23757
Critical_ROB_Stalls_Percent_3_Bucket_0: 2745
Non-critical_ROB_Stalls_Percent_3_Bucket_0: 2310179
Critical_ROB_Stalls_Percent_3_Bucket_1: 67977
Non-critical_ROB_Stalls_Percent_3_Bucket_1: 651762
Critical_ROB_Stalls_Percent_3_Bucket_2: 27907
Non-critical_ROB_Stalls_Percent_3_Bucket_2: 216122
Critical_ROB_Stalls_Percent_3_Bucket_3: 3458
Non-critical_ROB_Stalls_Percent_3_Bucket_3: 53262
Critical_ROB_Stalls_Percent_3_Bucket_4: 2
Non-critical_ROB_Stalls_Percent_3_Bucket_4: 20299
Critical_ROB_Stalls_Percent_3_Bucket_5: 0
Non-critical_ROB_Stalls_Percent_3_Bucket_5: 10299
Critical_ROB_Stalls_Percent_3_Bucket_6: 0
Non-critical_ROB_Stalls_Percent_3_Bucket_6: 23757
Critical_ROB_Stalls_Percent_4_Bucket_0: 2745
Non-critical_ROB_Stalls_Percent_4_Bucket_0: 2310179
Critical_ROB_Stalls_Percent_4_Bucket_1: 67977
Non-critical_ROB_Stalls_Percent_4_Bucket_1: 651762
Critical_ROB_Stalls_Percent_4_Bucket_2: 27907
Non-critical_ROB_Stalls_Percent_4_Bucket_2: 216122
Critical_ROB_Stalls_Percent_4_Bucket_3: 3458
Non-critical_ROB_Stalls_Percent_4_Bucket_3: 53262
Critical_ROB_Stalls_Percent_4_Bucket_4: 2
Non-critical_ROB_Stalls_Percent_4_Bucket_4: 20299
Critical_ROB_Stalls_Percent_4_Bucket_5: 0
Non-critical_ROB_Stalls_Percent_4_Bucket_5: 10299
Critical_ROB_Stalls_Percent_4_Bucket_6: 0
Non-critical_ROB_Stalls_Percent_4_Bucket_6: 23757
Critical_ROB_Stalls_Percent_5_Bucket_0: 2745
Non-critical_ROB_Stalls_Percent_5_Bucket_0: 2310179
Critical_ROB_Stalls_Percent_5_Bucket_1: 67977
Non-critical_ROB_Stalls_Percent_5_Bucket_1: 651762
Critical_ROB_Stalls_Percent_5_Bucket_2: 27907
Non-critical_ROB_Stalls_Percent_5_Bucket_2: 216122
Critical_ROB_Stalls_Percent_5_Bucket_3: 3458
Non-critical_ROB_Stalls_Percent_5_Bucket_3: 53262
Critical_ROB_Stalls_Percent_5_Bucket_4: 2
Non-critical_ROB_Stalls_Percent_5_Bucket_4: 20299
Critical_ROB_Stalls_Percent_5_Bucket_5: 0
Non-critical_ROB_Stalls_Percent_5_Bucket_5: 10299
Critical_ROB_Stalls_Percent_5_Bucket_6: 0
Non-critical_ROB_Stalls_Percent_5_Bucket_6: 23757
Critical_ROB_Stalls_Percent_6_Bucket_0: 2745
Non-critical_ROB_Stalls_Percent_6_Bucket_0: 2310179
Critical_ROB_Stalls_Percent_6_Bucket_1: 67977
Non-critical_ROB_Stalls_Percent_6_Bucket_1: 651762
Critical_ROB_Stalls_Percent_6_Bucket_2: 27907
Non-critical_ROB_Stalls_Percent_6_Bucket_2: 216122
Critical_ROB_Stalls_Percent_6_Bucket_3: 3458
Non-critical_ROB_Stalls_Percent_6_Bucket_3: 53262
Critical_ROB_Stalls_Percent_6_Bucket_4: 2
Non-critical_ROB_Stalls_Percent_6_Bucket_4: 20299
Critical_ROB_Stalls_Percent_6_Bucket_5: 0
Non-critical_ROB_Stalls_Percent_6_Bucket_5: 10299
Critical_ROB_Stalls_Percent_6_Bucket_6: 0
Non-critical_ROB_Stalls_Percent_6_Bucket_6: 23757
Critical_ROB_Stalls_Percent_7_Bucket_0: 2745
Non-critical_ROB_Stalls_Percent_7_Bucket_0: 2310179
Critical_ROB_Stalls_Percent_7_Bucket_1: 67977
Non-critical_ROB_Stalls_Percent_7_Bucket_1: 651762
Critical_ROB_Stalls_Percent_7_Bucket_2: 27907
Non-critical_ROB_Stalls_Percent_7_Bucket_2: 216122
Critical_ROB_Stalls_Percent_7_Bucket_3: 3458
Non-critical_ROB_Stalls_Percent_7_Bucket_3: 53262
Critical_ROB_Stalls_Percent_7_Bucket_4: 2
Non-critical_ROB_Stalls_Percent_7_Bucket_4: 20299
Critical_ROB_Stalls_Percent_7_Bucket_5: 0
Non-critical_ROB_Stalls_Percent_7_Bucket_5: 10299
Critical_ROB_Stalls_Percent_7_Bucket_6: 0
Non-critical_ROB_Stalls_Percent_7_Bucket_6: 23757
Critical_ROB_Stalls_Percent_8_Bucket_0: 2745
Non-critical_ROB_Stalls_Percent_8_Bucket_0: 2310179
Critical_ROB_Stalls_Percent_8_Bucket_1: 67977
Non-critical_ROB_Stalls_Percent_8_Bucket_1: 651762
Critical_ROB_Stalls_Percent_8_Bucket_2: 27907
Non-critical_ROB_Stalls_Percent_8_Bucket_2: 216122
Critical_ROB_Stalls_Percent_8_Bucket_3: 3458
Non-critical_ROB_Stalls_Percent_8_Bucket_3: 53262
Critical_ROB_Stalls_Percent_8_Bucket_4: 2
Non-critical_ROB_Stalls_Percent_8_Bucket_4: 20299
Critical_ROB_Stalls_Percent_8_Bucket_5: 0
Non-critical_ROB_Stalls_Percent_8_Bucket_5: 10299
Critical_ROB_Stalls_Percent_8_Bucket_6: 0
Non-critical_ROB_Stalls_Percent_8_Bucket_6: 23757
Average ROB occupancy Load Stall Begin: 39.0707
Average ROB occupancy Load Stall End: 47.3469
Min ROB occupancy Load Stall Begin: 1
Max ROB occupancy Load Stall Begin: 352
Min ROB occupancy Load Stall End: 1
Max ROB occupancy Load Stall End: 352
Average ROB occupancy Critical Load Stall Begin: -nan
Average ROB occupancy Critical Load Stall End: -nan
Min ROB occupancy Critical Load Stall Begin: 400
Max ROB occupancy Critical Load Stall Begin: 0
Min ROB occupancy Critical Load Stall End: 400
Max ROB occupancy Critical Load Stall End: 0
 ROB Load Stall Begin Bucket Count 0: 2551834
 ROB Load Stall End Bucket Count 0: 2312924
 ROB Critical Load Stall Begin Bucket Count 0: 0
 ROB Critical Load Stall End Bucket Count 0: 0
 ROB Load Stall Begin Bucket Count 1: 567801
 ROB Load Stall End Bucket Count 1: 719739
 ROB Critical Load Stall Begin Bucket Count 1: 0
 ROB Critical Load Stall End Bucket Count 1: 0
 ROB Load Stall Begin Bucket Count 2: 178993
 ROB Load Stall End Bucket Count 2: 244029
 ROB Critical Load Stall Begin Bucket Count 2: 0
 ROB Critical Load Stall End Bucket Count 2: 0
 ROB Load Stall Begin Bucket Count 3: 40761
 ROB Load Stall End Bucket Count 3: 56720
 ROB Critical Load Stall Begin Bucket Count 3: 0
 ROB Critical Load Stall End Bucket Count 3: 0
 ROB Load Stall Begin Bucket Count 4: 16443
 ROB Load Stall End Bucket Count 4: 20301
 ROB Critical Load Stall Begin Bucket Count 4: 0
 ROB Critical Load Stall End Bucket Count 4: 0
 ROB Load Stall Begin Bucket Count 5: 9343
 ROB Load Stall End Bucket Count 5: 10299
 ROB Critical Load Stall Begin Bucket Count 5: 0
 ROB Critical Load Stall End Bucket Count 5: 0
 ROB Load Stall Begin Bucket Count 6: 22594
 ROB Load Stall End Bucket Count 6: 23757
 ROB Critical Load Stall Begin Bucket Count 6: 0
 ROB Critical Load Stall End Bucket Count 6: 0
PIST Tag Read Accesses: 0
PIST Read Accesses: 0
PIST Tag Write Accesses: 0
PIST Write Accesses: 0
Criticality detector called times: 0
Max global_stall_cycles_count: 0
Threshold Modified: 0 times, factor: 0
ITLB TOTAL     ACCESS:    9887914  HIT:    9269399  MISS:     618515  HIT %:    93.7447  MISS %:    6.25526   MPKI: 12.3703
ITLB LOAD TRANSLATION ACCESS:    8069999  HIT:    7980841  MISS:      89158  HIT %:    98.8952  MISS %:    1.10481   MPKI: 1.78316
ITLB TRANSLATION FROM L1D PREFETCHER ACCESS:    1817915  HIT:    1288558  MISS:     529357  HIT %:    70.8811  MISS %:    29.1189   MPKI: 10.5871
ITLB PREFETCH  REQUESTED:          0  ISSUED:          0  USEFUL:     412181  USELESS:     117181
ITLB USEFUL LOAD PREFETCHES:     412181 PREFETCH ISSUED TO LOWER LEVEL:          0  ACCURACY: inf
ITLB TIMELY PREFETCHES:     412181 LATE PREFETCHES: 179 DROPPED PREFETCHES: 2971
ITLB PREFETCHES SAME FILL-ORIGIN LEVEL: 0 DIFFERENT FILL-ORIGIN LEVEL: 0
ITLB AVERAGE MISS LATENCY: 15371.4 cycles
ITLB RQ	ACCESS:   14528103	FORWARD:          0	MERGED:    4596958	TO_CACHE:    9931145

DTLB TOTAL     ACCESS:   11320985  HIT:   10856792  MISS:     464193  HIT %:    95.8997  MISS %:    4.10029   MPKI: 9.28386
DTLB LOAD TRANSLATION ACCESS:   11320985  HIT:   10856792  MISS:     464193  HIT %:    95.8997  MISS %:    4.10029   MPKI: 9.28386
DTLB PREFETCH  REQUESTED:          0  ISSUED:          0  USEFUL:          0  USELESS:          0
DTLB USEFUL LOAD PREFETCHES:          0 PREFETCH ISSUED TO LOWER LEVEL:          0  ACCURACY: -nan
DTLB TIMELY PREFETCHES:          0 LATE PREFETCHES: 0 DROPPED PREFETCHES: 0
DTLB PREFETCHES SAME FILL-ORIGIN LEVEL: 0 DIFFERENT FILL-ORIGIN LEVEL: 0
DTLB AVERAGE MISS LATENCY: 9.40283 cycles
DTLB RQ	ACCESS:   14772054	FORWARD:          0	MERGED:    3424409	TO_CACHE:   11347645

STLB TOTAL     ACCESS:    1406099  HIT:    1403102  MISS:       2997  HIT %:    99.7869  MISS %:   0.213143   MPKI: 0.05994
STLB LOAD TRANSLATION ACCESS:     553172  HIT:     550427  MISS:       2745  HIT %:    99.5038  MISS %:   0.496229   MPKI: 0.0549
STLB TRANSLATION FROM L1D PREFETCHER ACCESS:     852927  HIT:     852675  MISS:        252  HIT %:    99.9705  MISS %:  0.0295453   MPKI: 0.00504
STLB PREFETCH  REQUESTED:          0  ISSUED:          0  USEFUL:        195  USELESS:         55
STLB USEFUL LOAD PREFETCHES:        195 PREFETCH ISSUED TO LOWER LEVEL:          0  ACCURACY: inf
STLB TIMELY PREFETCHES:        195 LATE PREFETCHES: 0 DROPPED PREFETCHES: 2971
STLB PREFETCHES SAME FILL-ORIGIN LEVEL: 0 DIFFERENT FILL-ORIGIN LEVEL: 0
STLB AVERAGE MISS LATENCY: 67.6517 cycles
STLB RQ	ACCESS:    1520192	FORWARD:          0	MERGED:     111122	TO_CACHE:    1409070

STLB Hit, L1D data hit: 0
STLB Hit, L2C data hit: 0
STLB Hit, LLC data hit: 0
STLB Hit, LLC data miss: 0
STLB STLB hints to L2: 0
L1D TOTAL     ACCESS:   14643031  HIT:   13568177  MISS:    1074854  HIT %:    92.6596  MISS %:    7.34038   MPKI: 21.4971
L1D LOAD      ACCESS:    8031024  HIT:    7343591  MISS:     687433  HIT %:    91.4403  MISS %:    8.55972   MPKI: 13.7487
L1D RFO       ACCESS:    6235859  HIT:    5951640  MISS:     284219  HIT %:    95.4422  MISS %:    4.55782   MPKI: 5.68438
L1D PREFETCH  ACCESS:     376148  HIT:     272946  MISS:     103202  HIT %:    72.5635  MISS %:    27.4365   MPKI: 2.06404
L1D PREFETCH  REQUESTED:     869196  ISSUED:     869189  USEFUL:      41890  USELESS:      61266
L1D USEFUL LOAD PREFETCHES:      41890 PREFETCH ISSUED TO LOWER LEVEL:     148935  ACCURACY: 28.1264
L1D TIMELY PREFETCHES:      41890 LATE PREFETCHES: 45645 DROPPED PREFETCHES: 0
L1D PREFETCHES SAME FILL-ORIGIN LEVEL: 148935 DIFFERENT FILL-ORIGIN LEVEL: 0
L1D AVERAGE MISS LATENCY: 2.33409e+06 cycles
L1D RQ	ACCESS:   11539588	FORWARD:          0	MERGED:    3343422	TO_CACHE:    8068302
L1D WQ	ACCESS:    6771059	FORWARD:     128027	MERGED:      67307	TO_CACHE:    6703752
L1D PQ	ACCESS:     434676	FORWARD:          0	MERGED:          0	TO_CACHE:     434513

L1D UNIQUE REGIONS ACCESSED: 0
L1D REGIONS CONFLICTS: 0
L1D Cross Page Prefetch Requests: 0
L1D Same Page Prefetch Requests: 441937
L1D ROI Sum of L1D PQ occupancy: 5659218
L1D PREFETCHES PUSHED FROM L2C: 0
L1I TOTAL     ACCESS:   14378943  HIT:   10623378  MISS:    3755565  HIT %:    73.8815  MISS %:    26.1185   MPKI: 75.1113
L1I LOAD      ACCESS:    9394729  HIT:    9122391  MISS:     272338  HIT %:    97.1012  MISS %:    2.89884   MPKI: 5.44676
L1I PREFETCH  ACCESS:    4984214  HIT:    1500987  MISS:    3483227  HIT %:    30.1148  MISS %:    69.8852   MPKI: 69.6645
L1I PREFETCH  REQUESTED:    5243120  ISSUED:    5229567  USEFUL:    2351952  USELESS:    1131284
L1I USEFUL LOAD PREFETCHES:    2351952 PREFETCH ISSUED TO LOWER LEVEL:    3515644  ACCURACY: 66.8996
L1I TIMELY PREFETCHES:    2351952 LATE PREFETCHES: 32412 DROPPED PREFETCHES: 7926
L1I PREFETCHES SAME FILL-ORIGIN LEVEL: 3515644 DIFFERENT FILL-ORIGIN LEVEL: 0
L1I AVERAGE MISS LATENCY: 468082 cycles
L1I RQ	ACCESS:   13468587	FORWARD:          0	MERGED:    4050526	TO_CACHE:    9418061
L1I PQ	ACCESS:    5229567	FORWARD:          0	MERGED:     119525	TO_CACHE:    5110042

BTB TOTAL     ACCESS:    6210937  HIT:    4468588  MISS:    1742349  HIT %:    71.9471  MISS %:    28.0529   MPKI: 34.847
BTB BRANCH_DIRECT_JUMP	ACCESS:     566815  HIT:     417590  MISS:     149225
BTB BRANCH_INDIRECT	ACCESS:     197171  HIT:     163808  MISS:      33363
BTB BRANCH_CONDITIONAL	ACCESS:    3373175  HIT:    2911629  MISS:     461546
BTB BRANCH_DIRECT_CALL	ACCESS:     876400  HIT:     531836  MISS:     344564
BTB BRANCH_INDIRECT_CALL	ACCESS:     160491  HIT:      90228  MISS:      70263
BTB BRANCH_RETURN	ACCESS:    1036885  HIT:     353497  MISS:     683388
BTB BRANCH_OTHER ACCESS:          0  HIT:          0  MISS:          0

L2C TOTAL     ACCESS:    5408687  HIT:    4740891  MISS:     667796  HIT %:    87.6533  MISS %:    12.3467   MPKI: 13.3559
L2C LOAD      ACCESS:     881690  HIT:     716054  MISS:     165636  HIT %:    81.2138  MISS %:    18.7862   MPKI: 3.31272
L2C DATA LOAD MPKI: 2.59768
L2C INSTRUCTION LOAD MPKI: 0.71504
L2C RFO       ACCESS:     284130  HIT:     202990  MISS:      81140  HIT %:    71.4426  MISS %:    28.5574   MPKI: 1.6228
L2C PREFETCH  ACCESS:    3754633  HIT:    3365085  MISS:     389548  HIT %:    89.6249  MISS %:    10.3751   MPKI: 7.79096
L2C DATA PREFETCH MPKI: 1.68
L2C INSTRUCTION PREFETCH MPKI: 6.11096
L2C WRITEBACK ACCESS:     479725  HIT:     450523  MISS:      29202  HIT %:    93.9128  MISS %:    6.08724   MPKI: 0.58404
L2C LOAD TRANSLATION ACCESS:       3010  HIT:        936  MISS:       2074  HIT %:    31.0963  MISS %:    68.9037   MPKI: 0.04148
L2C TRANSLATION FROM L1D PREFETCHER ACCESS:       5499  HIT:       5303  MISS:        196  HIT %:    96.4357  MISS %:    3.56428   MPKI: 0.00392
L2C PREFETCH  REQUESTED:     160204  ISSUED:     160204  USEFUL:      12249  USELESS:     377119
L2C USEFUL LOAD PREFETCHES:      12249 PREFETCH ISSUED TO LOWER LEVEL:     390379  ACCURACY: 3.13772
L2C TIMELY PREFETCHES:      12249 LATE PREFETCHES: 827 DROPPED PREFETCHES: 0
L2C PREFETCHES SAME FILL-ORIGIN LEVEL: 31348 DIFFERENT FILL-ORIGIN LEVEL: 0
L2C AVERAGE MISS LATENCY: 40.9374 cycles
L2C RQ	ACCESS:    1174354	FORWARD:          0	MERGED:          0	TO_CACHE:    1174329
L2C WQ	ACCESS:     479725	FORWARD:         35	MERGED:          0	TO_CACHE:     479725
L2C PQ	ACCESS:    3824783	FORWARD:          0	MERGED:      66621	TO_CACHE:    3758152

L2C Instructions Evicting Data 154333
L2C Translations Evicting Data 1402
L2C Data Evicting Data 155774
L2C Instructions Evicting Instructions 186104
L2C Translations Evicting Instructions 850
L2C Data Evicting Instructions 137874
L2C Instructions Evicting Translations 863
L2C Translations Evicting Translations 18
L2C Data Evicting Translations 1376
L2C Dense regions hint from L2: 0
PSCL5 TOTAL     ACCESS:       5968  HIT:       5968  MISS:          0  HIT %:        100  MISS %:          0   MPKI: 0
PSCL5 LOAD TRANSLATION ACCESS:       2745  HIT:       2745  MISS:          0  HIT %:        100  MISS %:          0   MPKI: 0
PSCL5 TRANSLATION FROM L1D PREFETCHER ACCESS:       3223  HIT:       3223  MISS:          0  HIT %:        100  MISS %:          0   MPKI: 0
PSCL5 PREFETCH  REQUESTED:          0  ISSUED:          0  USEFUL:          0  USELESS:          0
PSCL5 USEFUL LOAD PREFETCHES:          0 PREFETCH ISSUED TO LOWER LEVEL:          0  ACCURACY: -nan
PSCL5 TIMELY PREFETCHES:          0 LATE PREFETCHES: 0 DROPPED PREFETCHES: 0
PSCL5 PREFETCHES SAME FILL-ORIGIN LEVEL: 0 DIFFERENT FILL-ORIGIN LEVEL: 0

PSCL4 TOTAL     ACCESS:       5866  HIT:       5860  MISS:          6  HIT %:    99.8977  MISS %:   0.102284   MPKI: 0.00012
PSCL4 LOAD TRANSLATION ACCESS:       2646  HIT:       2640  MISS:          6  HIT %:    99.7732  MISS %:   0.226757   MPKI: 0.00012
PSCL4 TRANSLATION FROM L1D PREFETCHER ACCESS:       3220  HIT:       3220  MISS:          0  HIT %:        100  MISS %:          0   MPKI: 0
PSCL4 PREFETCH  REQUESTED:          0  ISSUED:          0  USEFUL:          0  USELESS:          0
PSCL4 USEFUL LOAD PREFETCHES:          0 PREFETCH ISSUED TO LOWER LEVEL:          0  ACCURACY: -nan
PSCL4 TIMELY PREFETCHES:          0 LATE PREFETCHES: 0 DROPPED PREFETCHES: 0
PSCL4 PREFETCHES SAME FILL-ORIGIN LEVEL: 0 DIFFERENT FILL-ORIGIN LEVEL: 0

PSCL3 TOTAL     ACCESS:       5966  HIT:       5960  MISS:          6  HIT %:    99.8994  MISS %:    0.10057   MPKI: 0.00012
PSCL3 LOAD TRANSLATION ACCESS:       2746  HIT:       2740  MISS:          6  HIT %:    99.7815  MISS %:     0.2185   MPKI: 0.00012
PSCL3 TRANSLATION FROM L1D PREFETCHER ACCESS:       3220  HIT:       3220  MISS:          0  HIT %:        100  MISS %:          0   MPKI: 0
PSCL3 PREFETCH  REQUESTED:          0  ISSUED:          0  USEFUL:          0  USELESS:          0
PSCL3 USEFUL LOAD PREFETCHES:          0 PREFETCH ISSUED TO LOWER LEVEL:          0  ACCURACY: -nan
PSCL3 TIMELY PREFETCHES:          0 LATE PREFETCHES: 0 DROPPED PREFETCHES: 0
PSCL3 PREFETCHES SAME FILL-ORIGIN LEVEL: 0 DIFFERENT FILL-ORIGIN LEVEL: 0

PSCL2 TOTAL     ACCESS:       3732  HIT:       3442  MISS:        290  HIT %:    92.2294  MISS %:    7.77063   MPKI: 0.0058
PSCL2 LOAD TRANSLATION ACCESS:       2779  HIT:       2489  MISS:        290  HIT %:    89.5646  MISS %:    10.4354   MPKI: 0.0058
PSCL2 TRANSLATION FROM L1D PREFETCHER ACCESS:        953  HIT:        953  MISS:          0  HIT %:        100  MISS %:          0   MPKI: 0
PSCL2 PREFETCH  REQUESTED:          0  ISSUED:          0  USEFUL:          0  USELESS:          0
PSCL2 USEFUL LOAD PREFETCHES:          0 PREFETCH ISSUED TO LOWER LEVEL:          0  ACCURACY: -nan
PSCL2 TIMELY PREFETCHES:          0 LATE PREFETCHES: 0 DROPPED PREFETCHES: 0
PSCL2 PREFETCHES SAME FILL-ORIGIN LEVEL: 0 DIFFERENT FILL-ORIGIN LEVEL: 0

LLC TOTAL     ACCESS:     755122  HIT:     707589  MISS:      47533  HIT %:    93.7053  MISS %:    6.29474   MPKI: 0.95066
LLC LOAD      ACCESS:     164880  HIT:     156368  MISS:       8512  HIT %:    94.8375  MISS %:    5.16254   MPKI: 0.17024
LLC RFO       ACCESS:      81067  HIT:      58671  MISS:      22396  HIT %:    72.3735  MISS %:    27.6265   MPKI: 0.44792
LLC PREFETCH  ACCESS:     390375  HIT:     374454  MISS:      15921  HIT %:    95.9216  MISS %:    4.07839   MPKI: 0.31842
LLC WRITEBACK ACCESS:     116530  HIT:     116054  MISS:        476  HIT %:    99.5915  MISS %:   0.408479   MPKI: 0.00952
LLC LOAD TRANSLATION ACCESS:       2074  HIT:       1868  MISS:        206  HIT %:    90.0675  MISS %:     9.9325   MPKI: 0.00412
LLC TRANSLATION FROM L1D PREFETCHER ACCESS:        196  HIT:        174  MISS:         22  HIT %:    88.7755  MISS %:    11.2245   MPKI: 0.00044
LLC PREFETCH  REQUESTED:          0  ISSUED:          0  USEFUL:        714  USELESS:      10375
LLC USEFUL LOAD PREFETCHES:        714 PREFETCH ISSUED TO LOWER LEVEL:      15921  ACCURACY: 4.48464
LLC TIMELY PREFETCHES:        714 LATE PREFETCHES: 0 DROPPED PREFETCHES: 0
LLC PREFETCHES SAME FILL-ORIGIN LEVEL: 0 DIFFERENT FILL-ORIGIN LEVEL: 0
LLC AVERAGE MISS LATENCY: 171.647 cycles
LLC RQ	ACCESS:     248219	FORWARD:          0	MERGED:          0	TO_CACHE:     248217
LLC WQ	ACCESS:     116530	FORWARD:          2	MERGED:          0	TO_CACHE:     116530
LLC PQ	ACCESS:     390379	FORWARD:          0	MERGED:          0	TO_CACHE:     390379

LLC Dense regions hint to LLC: 0

RAW hits: 930483
Loads Generated: 12470071
Loads sent to L1D: 11539588
Stores Generated: 6771037
Stores sent to L1D: 6771059
Major fault: 0 Minor fault: 2466
Allocated PAGES: 2466
I-Shadow cache 408 bytes
Touched + WorthPF tables 6144 bytes 
MMA filter 174 bytes 
FNL filter 272 bytes 
TOTAL PREFETCHER STORAGE SIZE: 25174 bytes
CPU 0 L1I next line prefetcher final stats

stream: 
stream:times selected: 665216
stream:pref_filled: 47542
stream:pref_useful: 7324
stream:pref_late: 36393
stream:misses: 5508
stream:misses_by_poll: 0

CS: 
CS:times selected: 83538
CS:pref_filled: 41325
CS:pref_useful: 30912
CS:pref_late: 5012
CS:misses: 9376
CS:misses_by_poll: 45

CPLX: 
CPLX:times selected: 580600
CPLX:pref_filled: 12625
CPLX:pref_useful: 3770
CPLX:pref_late: 3255
CPLX:misses: 66531
CPLX:misses_by_poll: 84

NL_L1: 
NL:times selected: 5455
NL:pref_filled: 157
NL:pref_useful: 37
NL:pref_late: 3
NL:misses: 217
NL:misses_by_poll: 0

total selections: 1334809
total_filled: 103202
total_useful: 41890
total_late: 46392
total_polluted: 129
total_misses_after_warmup: 141351
conflicts: 172439
Degree Incremented Times: 3475
Degree Decremented Times: 13780

L1 IP Table Write Accesses: 1223185
L1 IP Table Read Accesses: 1050746
L1 RST Write Accesses: 659542
L1 RST Read Accesses: 1319084
L1 CSPT Write Accesses: 659542
L1 CSPT Read Accesses: 1235688
L1 RR Filter Tag Write Accesses: 434683
L1 RR Filter Tag Read Accesses: 28549932
L1 IP Table Tag Write Accesses: 1447145
L1 IP Table Tag Read Accesses: 1447145
L1 RST Tag Write Accesses: 0
L1 RST Tag Read Accesses: 5310057
L1 RR Filter Write Accesses: 0
L1 RR Filter Read Accesses: 1043643
test: 80035
L2 IP Table Read Accesses: 467429
L2 IP Table Write Accesses: 552327
L2 IP Table Tag Read Accesses: 307012
L2 IP Table Tag Write Accesses: 307012

DRAM Statistics
 CHANNEL 0
 RQ ROW_BUFFER_HIT:      16010  ROW_BUFFER_MISS:      31036
 DBUS_CONGESTED:          4
 WQ ROW_BUFFER_HIT:       2617  ROW_BUFFER_MISS:      23686  FULL:          0

 AVG_CONGESTED_CYCLE: 5
 All warmup complete: 2
Channel 0 Bank busy for read cycles: 0
Channel 0 Bank busy for write cycles: 0
Channel 0
Rank 0
0banks busy for read cycles: 74299856
0banks busy for write cycles: 5853
1banks busy for read cycles: 1499583
1banks busy for write cycles: 749188
2banks busy for read cycles: 486328
2banks busy for write cycles: 249491
3banks busy for read cycles: 197869
3banks busy for write cycles: 127801
4banks busy for read cycles: 108349
4banks busy for write cycles: 96116
5banks busy for read cycles: 50389
5banks busy for write cycles: 75850
6banks busy for read cycles: 48035
6banks busy for write cycles: 75518
7banks busy for read cycles: 53224
7banks busy for write cycles: 84666
8banks busy for read cycles: 135260
8banks busy for write cycles: 190647

CPU 0 Branch Prediction Accuracy: 99.7477% MPKI: 0.46156 Average ROB Occupancy at Mispredict: 72.8353
Branch types
NOT_BRANCH: 40853615 81.7072%
BRANCH_DIRECT_JUMP: 566815 1.13363%
BRANCH_INDIRECT: 197171 0.394342%
BRANCH_CONDITIONAL: 6308407 12.6168%
BRANCH_DIRECT_CALL: 876400 1.7528%
BRANCH_INDIRECT_CALL: 160491 0.320982%
BRANCH_RETURN: 1036885 2.07377%
BRANCH_OTHER: 0 0%

DRAM PAGES: 1048576
Allocated PAGES: 2466
