
*** ChampSim Multicore Out-of-Order Simulator ***

Warmup Instructions: 50000000
Simulation Instructions: 50000000
Number of CPUs: 1
LLC sets: 2048
LLC ways: 16
Off-chip DRAM Size: 4096 MB Channels: 1 Width: 64-bit Data Rate: 6400 MT/s
CPU 0 runs ../IPC-traces//server_014.champsimtrace.xz
.xz
NUM_OF_IPS_IN_CRITICAL_IP_TRAINING: 64
NUM_OF_CRITICAL_IP_TRAINING_TABLE_WAYS: 2
NUM_OF_CRITICAL_IP_TRAINING_TABLE_SETS: 32
WOBBLY_CRITICAL_IP_CACHE_SETS: 32
WOBBLY_CRITICAL_IP_CACHE_WAYS: 4
BTB has LRU replacement policy
ITLB has LRU replacement policy
DTLB has LRU replacement policy
STLB has LRU replacement policy
CPU 0 L1I next line prefetcher
L1I has LRU replacement policy
L1D has LRU replacement policy
Bingo PHT WAYS: 16 and PHT_SIZE: 16384
Initialize SRRIP state for L2C
Initialize DRRIP state for LLC
Heartbeat CPU 0 instructions: 10000003 cycles: 2819518 heartbeat IPC: 3.54671 cumulative IPC: 3.54671 (Simulation time: 0 hr 3 min 10 sec) 
Heartbeat CPU 0 instructions: 20000002 cycles: 5667904 heartbeat IPC: 3.51076 cumulative IPC: 3.52864 (Simulation time: 0 hr 5 min 37 sec) 
Heartbeat CPU 0 instructions: 30000003 cycles: 8493567 heartbeat IPC: 3.53899 cumulative IPC: 3.53209 (Simulation time: 0 hr 7 min 53 sec) 
Heartbeat CPU 0 instructions: 40000002 cycles: 11321148 heartbeat IPC: 3.53659 cumulative IPC: 3.53321 (Simulation time: 0 hr 9 min 54 sec) 
Heartbeat CPU 0 instructions: 50000002 cycles: 14148533 heartbeat IPC: 3.53684 cumulative IPC: 3.53394 (Simulation time: 0 hr 11 min 47 sec) 

Warmup complete CPU 0 instructions: 50000002 cycles: 14148533 (Simulation time: 0 hr 11 min 47 sec) 

Heartbeat CPU 0 instructions: 60000000 cycles: 27482486 heartbeat IPC: 0.749965 cumulative IPC: 0.749965 (Simulation time: 0 hr 14 min 7 sec) 
Heartbeat CPU 0 instructions: 70000000 cycles: 40786029 heartbeat IPC: 0.751679 cumulative IPC: 0.750821 (Simulation time: 0 hr 16 min 21 sec) 
*** Reached end of trace for Core: 0 Repeating trace: ../IPC-traces//server_014.champsimtrace.xz
Heartbeat CPU 0 instructions: 80000001 cycles: 54117605 heartbeat IPC: 0.750099 cumulative IPC: 0.75058 (Simulation time: 0 hr 18 min 35 sec) 
Heartbeat CPU 0 instructions: 90000003 cycles: 68513048 heartbeat IPC: 0.694664 cumulative IPC: 0.735774 (Simulation time: 0 hr 20 min 57 sec) 
Heartbeat CPU 0 instructions: 100000000 cycles: 81970828 heartbeat IPC: 0.743064 cumulative IPC: 0.737221 (Simulation time: 0 hr 23 min 0 sec) 
Finished CPU 0 instructions: 50000003 cycles: 67822305 cumulative IPC: 0.737221 (Simulation time: 0 hr 23 min 0 sec) 

ChampSim completed all CPUs

Region of Interest Statistics

CPU 0 cumulative IPC: 0.737221 instructions: 50000003 cycles: 67822305

CPU 0 Average Load ROB stall cycles: 1.76133e+07
CPU 0 Fraction of times ROB stalled by Loads: 36.8954
CPU 0 Percentage of Load stall cycles in Total stall cycles: 2.54898e+08
Issued all: 28703580
Issued LT all: 22646115
rob_not_full_when_issued_lt_all: 18463073
Issued LT one: 18054910
rob_not_full_when_issued_lt_one: 14219585
 Total stall cycles: 55846639
 Total load stall cycles: 142352093103662
CPU 0 NUM of IPS identified critical: 0
CPU 0 Num of Load IPs stalling ROB: 8993
Threshold modification factor: 0
Max PIST entries: 64
Min PIST entries: 0
Avg PIST entries: 32
Trouble in retire width: 0.812727
MaC = Marked as critical.
lt_50_percent_before_Mac: 0
gt_90_percent_before_Mac: 0
gt_75_percent_before_Mac: 0
gt_50_percent_before_Mac: 0
stall_proportion_bin_same_before_after: 0
stall_proportion_bin_lower_before_after: 0
stall_proportion_bin_upper_before_after: 0
average_stall_proportion_before: -nan
average_stall_proportion_after: -nan
Critical IP stalls, total frequency: 0
Non-critical IP stalls, total frequency: 2981909
Total Freq all stalling IPs: 2981909
stat_90_percent_critical_ip_stalls_freq: 2685140
stat_90_percent_non_critical_ip_stalls_freq: 296769
Critical_IP_ROB_Stalls_Bucket_0: 0
Non-critical_IP_ROB_Stalls_Bucket_0: 930846
Critical_IP_ROB_Stalls_Bucket_1: 0
Non-critical_IP_ROB_Stalls_Bucket_1: 969990
Critical_IP_ROB_Stalls_Bucket_2: 0
Non-critical_IP_ROB_Stalls_Bucket_2: 454623
Critical_IP_ROB_Stalls_Bucket_3: 0
Non-critical_IP_ROB_Stalls_Bucket_3: 154967
Critical_IP_ROB_Stalls_Bucket_4: 0
Non-critical_IP_ROB_Stalls_Bucket_4: 94367
Critical_IP_ROB_Stalls_Bucket_5: 0
Non-critical_IP_ROB_Stalls_Bucket_5: 88896
Critical_IP_ROB_Stalls_Bucket_6: 0
Non-critical_IP_ROB_Stalls_Bucket_6: 288220
0 => IPs accounting for >50 percent of stalls, 1 => 55, 2 => 60, 3 => 65 and so on till 90.
percent50: 50.2552 num IPs:  62
percent55: 55.0933 num IPs: 82
percent60: 60.174 num IPs: 104
percent65: 65.013 num IPs: 125
percent70: 70.063 num IPs: 147
percent75: 75.203 num IPs: 170
percent80: 80.1048 num IPs: 193
percent85: 85.0678 num IPs: 219
percent90: 90.0478 num IPs: 260
Critical_ROB_Stalls_Percent_0_Bucket_0: 315420
Non-critical_ROB_Stalls_Percent_0_Bucket_0: 615426
Critical_ROB_Stalls_Percent_0_Bucket_1: 371185
Non-critical_ROB_Stalls_Percent_0_Bucket_1: 598805
Critical_ROB_Stalls_Percent_0_Bucket_2: 226378
Non-critical_ROB_Stalls_Percent_0_Bucket_2: 228245
Critical_ROB_Stalls_Percent_0_Bucket_3: 125763
Non-critical_ROB_Stalls_Percent_0_Bucket_3: 29204
Critical_ROB_Stalls_Percent_0_Bucket_4: 89964
Non-critical_ROB_Stalls_Percent_0_Bucket_4: 4403
Critical_ROB_Stalls_Percent_0_Bucket_5: 87361
Non-critical_ROB_Stalls_Percent_0_Bucket_5: 1535
Critical_ROB_Stalls_Percent_0_Bucket_6: 282493
Non-critical_ROB_Stalls_Percent_0_Bucket_6: 5727
Critical_ROB_Stalls_Percent_1_Bucket_0: 354207
Non-critical_ROB_Stalls_Percent_1_Bucket_0: 576639
Critical_ROB_Stalls_Percent_1_Bucket_1: 446562
Non-critical_ROB_Stalls_Percent_1_Bucket_1: 523428
Critical_ROB_Stalls_Percent_1_Bucket_2: 246962
Non-critical_ROB_Stalls_Percent_1_Bucket_2: 207661
Critical_ROB_Stalls_Percent_1_Bucket_3: 134994
Non-critical_ROB_Stalls_Percent_1_Bucket_3: 19973
Critical_ROB_Stalls_Percent_1_Bucket_4: 90051
Non-critical_ROB_Stalls_Percent_1_Bucket_4: 4316
Critical_ROB_Stalls_Percent_1_Bucket_5: 87380
Non-critical_ROB_Stalls_Percent_1_Bucket_5: 1516
Critical_ROB_Stalls_Percent_1_Bucket_6: 282675
Non-critical_ROB_Stalls_Percent_1_Bucket_6: 5545
Critical_ROB_Stalls_Percent_2_Bucket_0: 371691
Non-critical_ROB_Stalls_Percent_2_Bucket_0: 559155
Critical_ROB_Stalls_Percent_2_Bucket_1: 506645
Non-critical_ROB_Stalls_Percent_2_Bucket_1: 463345
Critical_ROB_Stalls_Percent_2_Bucket_2: 313332
Non-critical_ROB_Stalls_Percent_2_Bucket_2: 141291
Critical_ROB_Stalls_Percent_2_Bucket_3: 140219
Non-critical_ROB_Stalls_Percent_2_Bucket_3: 14748
Critical_ROB_Stalls_Percent_2_Bucket_4: 91937
Non-critical_ROB_Stalls_Percent_2_Bucket_4: 2430
Critical_ROB_Stalls_Percent_2_Bucket_5: 87761
Non-critical_ROB_Stalls_Percent_2_Bucket_5: 1135
Critical_ROB_Stalls_Percent_2_Bucket_6: 282749
Non-critical_ROB_Stalls_Percent_2_Bucket_6: 5471
Critical_ROB_Stalls_Percent_3_Bucket_0: 405811
Non-critical_ROB_Stalls_Percent_3_Bucket_0: 525035
Critical_ROB_Stalls_Percent_3_Bucket_1: 584277
Non-critical_ROB_Stalls_Percent_3_Bucket_1: 385713
Critical_ROB_Stalls_Percent_3_Bucket_2: 344208
Non-critical_ROB_Stalls_Percent_3_Bucket_2: 110415
Critical_ROB_Stalls_Percent_3_Bucket_3: 141869
Non-critical_ROB_Stalls_Percent_3_Bucket_3: 13098
Critical_ROB_Stalls_Percent_3_Bucket_4: 91945
Non-critical_ROB_Stalls_Percent_3_Bucket_4: 2422
Critical_ROB_Stalls_Percent_3_Bucket_5: 87761
Non-critical_ROB_Stalls_Percent_3_Bucket_5: 1135
Critical_ROB_Stalls_Percent_3_Bucket_6: 282757
Non-critical_ROB_Stalls_Percent_3_Bucket_6: 5463
Critical_ROB_Stalls_Percent_4_Bucket_0: 441157
Non-critical_ROB_Stalls_Percent_4_Bucket_0: 489689
Critical_ROB_Stalls_Percent_4_Bucket_1: 656878
Non-critical_ROB_Stalls_Percent_4_Bucket_1: 313112
Critical_ROB_Stalls_Percent_4_Bucket_2: 383016
Non-critical_ROB_Stalls_Percent_4_Bucket_2: 71607
Critical_ROB_Stalls_Percent_4_Bucket_3: 145441
Non-critical_ROB_Stalls_Percent_4_Bucket_3: 9526
Critical_ROB_Stalls_Percent_4_Bucket_4: 92193
Non-critical_ROB_Stalls_Percent_4_Bucket_4: 2174
Critical_ROB_Stalls_Percent_4_Bucket_5: 87768
Non-critical_ROB_Stalls_Percent_4_Bucket_5: 1128
Critical_ROB_Stalls_Percent_4_Bucket_6: 282762
Non-critical_ROB_Stalls_Percent_4_Bucket_6: 5458
Critical_ROB_Stalls_Percent_5_Bucket_0: 500262
Non-critical_ROB_Stalls_Percent_5_Bucket_0: 430584
Critical_ROB_Stalls_Percent_5_Bucket_1: 735582
Non-critical_ROB_Stalls_Percent_5_Bucket_1: 234408
Critical_ROB_Stalls_Percent_5_Bucket_2: 397056
Non-critical_ROB_Stalls_Percent_5_Bucket_2: 57567
Critical_ROB_Stalls_Percent_5_Bucket_3: 146851
Non-critical_ROB_Stalls_Percent_5_Bucket_3: 8116
Critical_ROB_Stalls_Percent_5_Bucket_4: 92198
Non-critical_ROB_Stalls_Percent_5_Bucket_4: 2169
Critical_ROB_Stalls_Percent_5_Bucket_5: 87770
Non-critical_ROB_Stalls_Percent_5_Bucket_5: 1126
Critical_ROB_Stalls_Percent_5_Bucket_6: 282764
Non-critical_ROB_Stalls_Percent_5_Bucket_6: 5456
Critical_ROB_Stalls_Percent_6_Bucket_0: 562431
Non-critical_ROB_Stalls_Percent_6_Bucket_0: 368415
Critical_ROB_Stalls_Percent_6_Bucket_1: 807501
Non-critical_ROB_Stalls_Percent_6_Bucket_1: 162489
Critical_ROB_Stalls_Percent_6_Bucket_2: 407668
Non-critical_ROB_Stalls_Percent_6_Bucket_2: 46955
Critical_ROB_Stalls_Percent_6_Bucket_3: 148099
Non-critical_ROB_Stalls_Percent_6_Bucket_3: 6868
Critical_ROB_Stalls_Percent_6_Bucket_4: 92409
Non-critical_ROB_Stalls_Percent_6_Bucket_4: 1958
Critical_ROB_Stalls_Percent_6_Bucket_5: 87778
Non-critical_ROB_Stalls_Percent_6_Bucket_5: 1118
Critical_ROB_Stalls_Percent_6_Bucket_6: 282765
Non-critical_ROB_Stalls_Percent_6_Bucket_6: 5455
Critical_ROB_Stalls_Percent_7_Bucket_0: 655963
Non-critical_ROB_Stalls_Percent_7_Bucket_0: 274883
Critical_ROB_Stalls_Percent_7_Bucket_1: 854783
Non-critical_ROB_Stalls_Percent_7_Bucket_1: 115207
Critical_ROB_Stalls_Percent_7_Bucket_2: 414461
Non-critical_ROB_Stalls_Percent_7_Bucket_2: 40162
Critical_ROB_Stalls_Percent_7_Bucket_3: 148247
Non-critical_ROB_Stalls_Percent_7_Bucket_3: 6720
Critical_ROB_Stalls_Percent_7_Bucket_4: 92481
Non-critical_ROB_Stalls_Percent_7_Bucket_4: 1886
Critical_ROB_Stalls_Percent_7_Bucket_5: 87782
Non-critical_ROB_Stalls_Percent_7_Bucket_5: 1114
Critical_ROB_Stalls_Percent_7_Bucket_6: 282925
Non-critical_ROB_Stalls_Percent_7_Bucket_6: 5295
Critical_ROB_Stalls_Percent_8_Bucket_0: 766832
Non-critical_ROB_Stalls_Percent_8_Bucket_0: 164014
Critical_ROB_Stalls_Percent_8_Bucket_1: 878090
Non-critical_ROB_Stalls_Percent_8_Bucket_1: 91900
Critical_ROB_Stalls_Percent_8_Bucket_2: 427372
Non-critical_ROB_Stalls_Percent_8_Bucket_2: 27251
Critical_ROB_Stalls_Percent_8_Bucket_3: 149484
Non-critical_ROB_Stalls_Percent_8_Bucket_3: 5483
Critical_ROB_Stalls_Percent_8_Bucket_4: 92584
Non-critical_ROB_Stalls_Percent_8_Bucket_4: 1783
Critical_ROB_Stalls_Percent_8_Bucket_5: 87784
Non-critical_ROB_Stalls_Percent_8_Bucket_5: 1112
Critical_ROB_Stalls_Percent_8_Bucket_6: 282994
Non-critical_ROB_Stalls_Percent_8_Bucket_6: 5226
Average ROB occupancy Load Stall Begin: 101.003
Average ROB occupancy Load Stall End: 109.388
Min ROB occupancy Load Stall Begin: 1
Max ROB occupancy Load Stall Begin: 352
Min ROB occupancy Load Stall End: 1
Max ROB occupancy Load Stall End: 352
Average ROB occupancy Critical Load Stall Begin: -nan
Average ROB occupancy Critical Load Stall End: -nan
Min ROB occupancy Critical Load Stall Begin: 400
Max ROB occupancy Critical Load Stall Begin: 0
Min ROB occupancy Critical Load Stall End: 400
Max ROB occupancy Critical Load Stall End: 0
 ROB Load Stall Begin Bucket Count 0: 1231790
 ROB Load Stall End Bucket Count 0: 930846
 ROB Critical Load Stall Begin Bucket Count 0: 0
 ROB Critical Load Stall End Bucket Count 0: 0
 ROB Load Stall Begin Bucket Count 1: 796180
 ROB Load Stall End Bucket Count 1: 969990
 ROB Critical Load Stall Begin Bucket Count 1: 0
 ROB Critical Load Stall End Bucket Count 1: 0
 ROB Load Stall Begin Bucket Count 2: 357164
 ROB Load Stall End Bucket Count 2: 454623
 ROB Critical Load Stall Begin Bucket Count 2: 0
 ROB Critical Load Stall End Bucket Count 2: 0
 ROB Load Stall Begin Bucket Count 3: 136214
 ROB Load Stall End Bucket Count 3: 154967
 ROB Critical Load Stall Begin Bucket Count 3: 0
 ROB Critical Load Stall End Bucket Count 3: 0
 ROB Load Stall Begin Bucket Count 4: 89639
 ROB Load Stall End Bucket Count 4: 94367
 ROB Critical Load Stall Begin Bucket Count 4: 0
 ROB Critical Load Stall End Bucket Count 4: 0
 ROB Load Stall Begin Bucket Count 5: 90286
 ROB Load Stall End Bucket Count 5: 88896
 ROB Critical Load Stall Begin Bucket Count 5: 0
 ROB Critical Load Stall End Bucket Count 5: 0
 ROB Load Stall Begin Bucket Count 6: 280636
 ROB Load Stall End Bucket Count 6: 288220
 ROB Critical Load Stall Begin Bucket Count 6: 0
 ROB Critical Load Stall End Bucket Count 6: 0
PIST Tag Read Accesses: 3925464
PIST Read Accesses: 1962732
PIST Tag Write Accesses: 3925464
PIST Write Accesses: 1962732
Criticality detector called times: 2922587
Max global_stall_cycles_count: 6044240
Threshold Modified: 0 times, factor: 0
Sturdy critical IP cache stats: 
 Unused entries: 0
CIC Tag Read Accesses: 0
CIC Read Accesses: 0
CIC Tag Write Accesses: 0
CIC Write Accesses: 0
Wobbly critical IP cache stats: 
 Unused entries: 103
CIC Tag Read Accesses: 168485258
CIC Read Accesses: 0
CIC Tag Write Accesses: 39
CIC Write Accesses: 0
ITLB TOTAL     ACCESS:   10440250  HIT:   10036715  MISS:     403535  HIT %:    96.1348  MISS %:    3.86519   MPKI: 8.0707
ITLB LOAD TRANSLATION ACCESS:    8216968  HIT:    8182608  MISS:      34360  HIT %:    99.5818  MISS %:   0.418159   MPKI: 0.6872
ITLB TRANSLATION FROM L1D PREFETCHER ACCESS:    2223282  HIT:    1854107  MISS:     369175  HIT %:     83.395  MISS %:     16.605   MPKI: 7.3835
ITLB PREFETCH  REQUESTED:          0  ISSUED:          0  USEFUL:     324141  USELESS:      45034
ITLB USEFUL LOAD PREFETCHES:     324141 PREFETCH ISSUED TO LOWER LEVEL:          0  ACCURACY: inf
ITLB TIMELY PREFETCHES:     324141 LATE PREFETCHES: 1180 DROPPED PREFETCHES: 27
ITLB PREFETCHES SAME FILL-ORIGIN LEVEL: 0 DIFFERENT FILL-ORIGIN LEVEL: 0
ITLB AVERAGE MISS LATENCY: 212342 cycles
ITLB RQ	ACCESS:   15372352	FORWARD:          0	MERGED:    4884086	TO_CACHE:   10488266

DTLB TOTAL     ACCESS:   10795217  HIT:   10605300  MISS:     189917  HIT %:    98.2407  MISS %:    1.75927   MPKI: 3.79834
DTLB LOAD TRANSLATION ACCESS:   10795217  HIT:   10605300  MISS:     189917  HIT %:    98.2407  MISS %:    1.75927   MPKI: 3.79834
DTLB PREFETCH  REQUESTED:          0  ISSUED:          0  USEFUL:          0  USELESS:          0
DTLB USEFUL LOAD PREFETCHES:          0 PREFETCH ISSUED TO LOWER LEVEL:          0  ACCURACY: -nan
DTLB TIMELY PREFETCHES:          0 LATE PREFETCHES: 0 DROPPED PREFETCHES: 0
DTLB PREFETCHES SAME FILL-ORIGIN LEVEL: 0 DIFFERENT FILL-ORIGIN LEVEL: 0
DTLB AVERAGE MISS LATENCY: 9.73795 cycles
DTLB RQ	ACCESS:   15651303	FORWARD:          0	MERGED:    4840741	TO_CACHE:   10810562

STLB TOTAL     ACCESS:     593452  HIT:     592206  MISS:       1246  HIT %:      99.79  MISS %:   0.209958   MPKI: 0.02492
STLB LOAD TRANSLATION ACCESS:     223097  HIT:     221916  MISS:       1181  HIT %:    99.4706  MISS %:   0.529366   MPKI: 0.02362
STLB TRANSLATION FROM L1D PREFETCHER ACCESS:     370355  HIT:     370290  MISS:         65  HIT %:    99.9824  MISS %:  0.0175507   MPKI: 0.0013
STLB PREFETCH  REQUESTED:          0  ISSUED:          0  USEFUL:         58  USELESS:          3
STLB USEFUL LOAD PREFETCHES:         58 PREFETCH ISSUED TO LOWER LEVEL:          0  ACCURACY: inf
STLB TIMELY PREFETCHES:         58 LATE PREFETCHES: 0 DROPPED PREFETCHES: 27
STLB PREFETCHES SAME FILL-ORIGIN LEVEL: 0 DIFFERENT FILL-ORIGIN LEVEL: 0
STLB AVERAGE MISS LATENCY: 133.497 cycles
STLB RQ	ACCESS:     593479	FORWARD:          0	MERGED:          0	TO_CACHE:     593479

STLB Hit, L1D data hit: 0
STLB Hit, L2C data hit: 0
STLB Hit, LLC data hit: 0
STLB Hit, LLC data miss: 0
STLB STLB hints to L2: 0
L1D TOTAL     ACCESS:   15592041  HIT:   15530571  MISS:      61470  HIT %:    99.6058  MISS %:    0.39424   MPKI: 1.2294
L1D LOAD      ACCESS:    7132528  HIT:    7103306  MISS:      29222  HIT %:    99.5903  MISS %:     0.4097   MPKI: 0.58444
L1D RFO       ACCESS:    8459513  HIT:    8427265  MISS:      32248  HIT %:    99.6188  MISS %:   0.381204   MPKI: 0.64496
L1D PREFETCH  REQUESTED:          0  ISSUED:          0  USEFUL:          0  USELESS:          0
L1D USEFUL LOAD PREFETCHES:          0 PREFETCH ISSUED TO LOWER LEVEL:          0  ACCURACY: -nan
L1D TIMELY PREFETCHES:          0 LATE PREFETCHES: 0 DROPPED PREFETCHES: 0
L1D PREFETCHES SAME FILL-ORIGIN LEVEL: 0 DIFFERENT FILL-ORIGIN LEVEL: 0
L1D AVERAGE MISS LATENCY: 200.919 cycles
L1D RQ	ACCESS:   11277791	FORWARD:          0	MERGED:    3977323	TO_CACHE:    7138292
L1D WQ	ACCESS:    8638567	FORWARD:     162176	MERGED:     125556	TO_CACHE:    8513011

L1D UNIQUE REGIONS ACCESSED: 0
L1D REGIONS CONFLICTS: 0
L1D Cross Page Prefetch Requests: 0
L1D Same Page Prefetch Requests: 0
L1D ROI Sum of L1D PQ occupancy: 0
L1D PREFETCHES PUSHED FROM L2C: 0
L1I TOTAL     ACCESS:   15317791  HIT:   13217872  MISS:    2099919  HIT %:     86.291  MISS %:     13.709   MPKI: 41.9984
L1I LOAD      ACCESS:    9537146  HIT:    9503858  MISS:      33288  HIT %:     99.651  MISS %:   0.349035   MPKI: 0.66576
L1I PREFETCH  ACCESS:    5780645  HIT:    3714014  MISS:    2066631  HIT %:    64.2491  MISS %:    35.7509   MPKI: 41.3326
L1I PREFETCH  REQUESTED:    6036299  ISSUED:    6036080  USEFUL:    1790192  USELESS:     276443
L1I USEFUL LOAD PREFETCHES:    1790192 PREFETCH ISSUED TO LOWER LEVEL:    2075206  ACCURACY: 86.2657
L1I TIMELY PREFETCHES:    1790192 LATE PREFETCHES: 8575 DROPPED PREFETCHES: 33
L1I PREFETCHES SAME FILL-ORIGIN LEVEL: 2075206 DIFFERENT FILL-ORIGIN LEVEL: 0
L1I AVERAGE MISS LATENCY: 168158 cycles
L1I RQ	ACCESS:   13769079	FORWARD:          0	MERGED:    4226599	TO_CACHE:    9542480
L1I PQ	ACCESS:    6036080	FORWARD:          0	MERGED:     206208	TO_CACHE:    5829872

BTB TOTAL     ACCESS:    5705846  HIT:    5254646  MISS:     451200  HIT %:    92.0923  MISS %:    7.90768   MPKI: 9.024
BTB BRANCH_DIRECT_JUMP	ACCESS:     449415  HIT:     448069  MISS:       1346
BTB BRANCH_INDIRECT	ACCESS:       2330  HIT:       2200  MISS:        130
BTB BRANCH_CONDITIONAL	ACCESS:    2664995  HIT:    2660208  MISS:       4787
BTB BRANCH_DIRECT_CALL	ACCESS:    1172178  HIT:    1168562  MISS:       3616
BTB BRANCH_INDIRECT_CALL	ACCESS:     122383  HIT:     109013  MISS:      13370
BTB BRANCH_RETURN	ACCESS:    1294545  HIT:     866594  MISS:     427951
BTB BRANCH_OTHER ACCESS:          0  HIT:          0  MISS:          0

L2C TOTAL     ACCESS:    2208486  HIT:    2137596  MISS:      70890  HIT %:    96.7901  MISS %:    3.20989   MPKI: 1.4178
L2C LOAD      ACCESS:      53935  HIT:      33107  MISS:      20828  HIT %:    61.3831  MISS %:    38.6169   MPKI: 0.41656
L2C DATA LOAD MPKI: 0.33084
L2C INSTRUCTION LOAD MPKI: 0.08572
L2C RFO       ACCESS:      32248  HIT:       1070  MISS:      31178  HIT %:    3.31804  MISS %:     96.682   MPKI: 0.62356
L2C PREFETCH  ACCESS:    2083016  HIT:    2066300  MISS:      16716  HIT %:    99.1975  MISS %:    0.80249   MPKI: 0.33432
L2C DATA PREFETCH MPKI: 0.14294
L2C INSTRUCTION PREFETCH MPKI: 0.19138
L2C WRITEBACK ACCESS:      37836  HIT:      36378  MISS:       1458  HIT %:    96.1465  MISS %:    3.85347   MPKI: 0.02916
L2C LOAD TRANSLATION ACCESS:       1348  HIT:        682  MISS:        666  HIT %:    50.5935  MISS %:    49.4065   MPKI: 0.01332
L2C TRANSLATION FROM L1D PREFETCHER ACCESS:        103  HIT:         59  MISS:         44  HIT %:    57.2816  MISS %:    42.7184   MPKI: 0.00088
L2C PREFETCH  REQUESTED:      11275  ISSUED:      11275  USEFUL:       7854  USELESS:       8641
L2C USEFUL LOAD PREFETCHES:       7854 PREFETCH ISSUED TO LOWER LEVEL:      19285  ACCURACY: 40.726
L2C TIMELY PREFETCHES:       7854 LATE PREFETCHES: 2569 DROPPED PREFETCHES: 0
L2C PREFETCHES SAME FILL-ORIGIN LEVEL: 9716 DIFFERENT FILL-ORIGIN LEVEL: 0
L2C AVERAGE MISS LATENCY: 212.603 cycles
L2C RQ	ACCESS:      87634	FORWARD:          0	MERGED:          0	TO_CACHE:      87634
L2C WQ	ACCESS:      37836	FORWARD:          0	MERGED:          0	TO_CACHE:      37836
L2C PQ	ACCESS:    2086481	FORWARD:          0	MERGED:          0	TO_CACHE:    2086481

L2C Instructions Evicting Data 11162
L2C Translations Evicting Data 564
L2C Data Evicting Data 43451
L2C Instructions Evicting Instructions 2557
L2C Translations Evicting Instructions 134
L2C Data Evicting Instructions 10876
L2C Instructions Evicting Translations 136
L2C Translations Evicting Translations 12
L2C Data Evicting Translations 540
L2C Dense regions hint from L2: 0
PSCL5 TOTAL     ACCESS:       1273  HIT:       1273  MISS:          0  HIT %:        100  MISS %:          0   MPKI: 0
PSCL5 LOAD TRANSLATION ACCESS:       1181  HIT:       1181  MISS:          0  HIT %:        100  MISS %:          0   MPKI: 0
PSCL5 TRANSLATION FROM L1D PREFETCHER ACCESS:         92  HIT:         92  MISS:          0  HIT %:        100  MISS %:          0   MPKI: 0
PSCL5 PREFETCH  REQUESTED:          0  ISSUED:          0  USEFUL:          0  USELESS:          0
PSCL5 USEFUL LOAD PREFETCHES:          0 PREFETCH ISSUED TO LOWER LEVEL:          0  ACCURACY: -nan
PSCL5 TIMELY PREFETCHES:          0 LATE PREFETCHES: 0 DROPPED PREFETCHES: 0
PSCL5 PREFETCHES SAME FILL-ORIGIN LEVEL: 0 DIFFERENT FILL-ORIGIN LEVEL: 0

PSCL4 TOTAL     ACCESS:       1017  HIT:       1007  MISS:         10  HIT %:    99.0167  MISS %:   0.983284   MPKI: 0.0002
PSCL4 LOAD TRANSLATION ACCESS:        938  HIT:        928  MISS:         10  HIT %:    98.9339  MISS %:     1.0661   MPKI: 0.0002
PSCL4 TRANSLATION FROM L1D PREFETCHER ACCESS:         79  HIT:         79  MISS:          0  HIT %:        100  MISS %:          0   MPKI: 0
PSCL4 PREFETCH  REQUESTED:          0  ISSUED:          0  USEFUL:          0  USELESS:          0
PSCL4 USEFUL LOAD PREFETCHES:          0 PREFETCH ISSUED TO LOWER LEVEL:          0  ACCURACY: -nan
PSCL4 TIMELY PREFETCHES:          0 LATE PREFETCHES: 0 DROPPED PREFETCHES: 0
PSCL4 PREFETCHES SAME FILL-ORIGIN LEVEL: 0 DIFFERENT FILL-ORIGIN LEVEL: 0

PSCL3 TOTAL     ACCESS:       1193  HIT:       1183  MISS:         10  HIT %:    99.1618  MISS %:   0.838223   MPKI: 0.0002
PSCL3 LOAD TRANSLATION ACCESS:       1114  HIT:       1104  MISS:         10  HIT %:    99.1023  MISS %:   0.897666   MPKI: 0.0002
PSCL3 TRANSLATION FROM L1D PREFETCHER ACCESS:         79  HIT:         79  MISS:          0  HIT %:        100  MISS %:          0   MPKI: 0
PSCL3 PREFETCH  REQUESTED:          0  ISSUED:          0  USEFUL:          0  USELESS:          0
PSCL3 USEFUL LOAD PREFETCHES:          0 PREFETCH ISSUED TO LOWER LEVEL:          0  ACCURACY: -nan
PSCL3 TIMELY PREFETCHES:          0 LATE PREFETCHES: 0 DROPPED PREFETCHES: 0
PSCL3 PREFETCHES SAME FILL-ORIGIN LEVEL: 0 DIFFERENT FILL-ORIGIN LEVEL: 0

PSCL2 TOTAL     ACCESS:       1270  HIT:       1119  MISS:        151  HIT %:    88.1102  MISS %:    11.8898   MPKI: 0.00302
PSCL2 LOAD TRANSLATION ACCESS:       1185  HIT:       1034  MISS:        151  HIT %:    87.2574  MISS %:    12.7426   MPKI: 0.00302
PSCL2 TRANSLATION FROM L1D PREFETCHER ACCESS:         85  HIT:         85  MISS:          0  HIT %:        100  MISS %:          0   MPKI: 0
PSCL2 PREFETCH  REQUESTED:          0  ISSUED:          0  USEFUL:          0  USELESS:          0
PSCL2 USEFUL LOAD PREFETCHES:          0 PREFETCH ISSUED TO LOWER LEVEL:          0  ACCURACY: -nan
PSCL2 TIMELY PREFETCHES:          0 LATE PREFETCHES: 0 DROPPED PREFETCHES: 0
PSCL2 PREFETCHES SAME FILL-ORIGIN LEVEL: 0 DIFFERENT FILL-ORIGIN LEVEL: 0

LLC TOTAL     ACCESS:     104325  HIT:      58516  MISS:      45809  HIT %:    56.0901  MISS %:    43.9099   MPKI: 0.91618
LLC LOAD      ACCESS:      18259  HIT:       5749  MISS:      12510  HIT %:    31.4858  MISS %:    68.5142   MPKI: 0.2502
LLC RFO       ACCESS:      31178  HIT:       9219  MISS:      21959  HIT %:    29.5689  MISS %:    70.4311   MPKI: 0.43918
LLC PREFETCH  ACCESS:      19285  HIT:       8676  MISS:      10609  HIT %:    44.9883  MISS %:    55.0117   MPKI: 0.21218
LLC WRITEBACK ACCESS:      34893  HIT:      34597  MISS:        296  HIT %:    99.1517  MISS %:   0.848308   MPKI: 0.00592
LLC LOAD TRANSLATION ACCESS:        666  HIT:        246  MISS:        420  HIT %:    36.9369  MISS %:    63.0631   MPKI: 0.0084
LLC TRANSLATION FROM L1D PREFETCHER ACCESS:         44  HIT:         29  MISS:         15  HIT %:    65.9091  MISS %:    34.0909   MPKI: 0.0003
LLC PREFETCH  REQUESTED:          0  ISSUED:          0  USEFUL:        882  USELESS:       5548
LLC USEFUL LOAD PREFETCHES:        882 PREFETCH ISSUED TO LOWER LEVEL:      10609  ACCURACY: 8.3137
LLC TIMELY PREFETCHES:        882 LATE PREFETCHES: 0 DROPPED PREFETCHES: 0
LLC PREFETCHES SAME FILL-ORIGIN LEVEL: 0 DIFFERENT FILL-ORIGIN LEVEL: 0
LLC AVERAGE MISS LATENCY: 296.802 cycles
LLC RQ	ACCESS:      50147	FORWARD:          0	MERGED:          0	TO_CACHE:      50147
LLC WQ	ACCESS:      34893	FORWARD:          0	MERGED:          0	TO_CACHE:      34893
LLC PQ	ACCESS:      19285	FORWARD:          0	MERGED:          0	TO_CACHE:      19285

LLC Dense regions hint to LLC: 0

RAW hits: 1534604
Loads Generated: 12812392
Loads sent to L1D: 11277791
Stores Generated: 8638565
Stores sent to L1D: 8638567
Major fault: 0 Minor fault: 2022
Allocated PAGES: 2022
I-Shadow cache 408 bytes
Touched + WorthPF tables 6144 bytes 
MMA filter 174 bytes 
FNL filter 272 bytes 
TOTAL PREFETCHER STORAGE SIZE: 25174 bytes
CPU 0 L1I next line prefetcher final stats
[Bingo] PHT Access: 949
[Bingo] PHT Hit PC+Addr: 3
[Bingo] PHT Hit PC+Offs: 435
[Bingo] PHT Miss: 511
[Bingo] Prefetch PC+Addr: 0
[Bingo] Prefetch PC+Offs: 0
[Bingo] Useful PC+Addr: 0
[Bingo] Useful PC+Offs: 0
[Bingo] Useless PC+Addr: 0
[Bingo] Useless PC+Offs: 0
[Bingo] L1 Prefetch per Region: 0
[Bingo] L2 Prefetch per Region: 26.742
[Bingo] L3 Prefetch per Region: 0
[Bingo] No Prefetch per Region: 5.25799
[Bingo] Number of Voters Mean: 13.3264
[Bingo] Number of Voters SD: 5.09127
PHT read accesses: 6039
PHT write accesses: 470
AT read accesses: 12854
AT write accesses: 12878
FT read accesses: 1536
FT write accesses: 949
PS read accesses: 3263
PS write accesses: 438
PHT tag read accesses: 29044
PHT tag write accesses: 473
AT tag read accesses: 1364796
AT tag write accesses: 13348
FT tag read accesses: 1187600
FT tag write accesses: 1990
PS tag read accesses: 227798
PS tag write accesses: 3701

DRAM Statistics
 CHANNEL 0
 RQ ROW_BUFFER_HIT:      19391  ROW_BUFFER_MISS:      26122
 DBUS_CONGESTED:          8
 WQ ROW_BUFFER_HIT:       6172  ROW_BUFFER_MISS:      19655  FULL:          0

 AVG_CONGESTED_CYCLE: 5
 All warmup complete: 2
Channel 0 Bank busy for read cycles: 0
Channel 0 Bank busy for write cycles: 0
Channel 0
Rank 0
0banks busy for read cycles: 65129303
0banks busy for write cycles: 1746
1banks busy for read cycles: 654573
1banks busy for write cycles: 248839
2banks busy for read cycles: 309379
2banks busy for write cycles: 174006
3banks busy for read cycles: 136161
3banks busy for write cycles: 102572
4banks busy for read cycles: 69762
4banks busy for write cycles: 62815
5banks busy for read cycles: 60691
5banks busy for write cycles: 43496
6banks busy for read cycles: 62510
6banks busy for write cycles: 43713
7banks busy for read cycles: 80429
7banks busy for write cycles: 81532
8banks busy for read cycles: 228049
8banks busy for write cycles: 332730

CPU 0 Branch Prediction Accuracy: 99.7719% MPKI: 0.38824 Average ROB Occupancy at Mispredict: 48.1212
Branch types
NOT_BRANCH: 41488827 82.9776%
BRANCH_DIRECT_JUMP: 449415 0.89883%
BRANCH_INDIRECT: 2330 0.00466%
BRANCH_CONDITIONAL: 5470003 10.94%
BRANCH_DIRECT_CALL: 1172178 2.34436%
BRANCH_INDIRECT_CALL: 122383 0.244766%
BRANCH_RETURN: 1294545 2.58909%
BRANCH_OTHER: 0 0%

DRAM PAGES: 1048576
Allocated PAGES: 2022
