
*** ChampSim Multicore Out-of-Order Simulator ***

Warmup Instructions: 50000000
Simulation Instructions: 50000000
Number of CPUs: 1
LLC sets: 2048
LLC ways: 16
Off-chip DRAM Size: 4096 MB Channels: 1 Width: 64-bit Data Rate: 6400 MT/s
CPU 0 runs ../IPC-traces//server_030.champsimtrace.xz
.xz
NUM_OF_IPS_IN_CRITICAL_IP_TRAINING: 64
NUM_OF_CRITICAL_IP_TRAINING_TABLE_WAYS: 2
NUM_OF_CRITICAL_IP_TRAINING_TABLE_SETS: 32
WOBBLY_CRITICAL_IP_CACHE_SETS: 32
WOBBLY_CRITICAL_IP_CACHE_WAYS: 4
BTB has LRU replacement policy
ITLB has LRU replacement policy
DTLB has LRU replacement policy
STLB has LRU replacement policy
CPU 0 L1I next line prefetcher
L1I has LRU replacement policy
IP Table Entries: 256
L1D has LRU replacement policy
Initialize SRRIP state for L2C
Initialize DRRIP state for LLC
Heartbeat CPU 0 instructions: 10000003 cycles: 2885792 heartbeat IPC: 3.46525 cumulative IPC: 3.46525 (Simulation time: 0 hr 6 min 24 sec) 
Heartbeat CPU 0 instructions: 20000003 cycles: 5768189 heartbeat IPC: 3.46933 cumulative IPC: 3.46729 (Simulation time: 0 hr 13 min 9 sec) 
Heartbeat CPU 0 instructions: 30000000 cycles: 8650906 heartbeat IPC: 3.46895 cumulative IPC: 3.46784 (Simulation time: 0 hr 20 min 17 sec) 
Heartbeat CPU 0 instructions: 40000001 cycles: 11534109 heartbeat IPC: 3.46837 cumulative IPC: 3.46797 (Simulation time: 0 hr 26 min 52 sec) 
Heartbeat CPU 0 instructions: 50000002 cycles: 14418324 heartbeat IPC: 3.46715 cumulative IPC: 3.46781 (Simulation time: 0 hr 33 min 6 sec) 

Warmup complete CPU 0 instructions: 50000002 cycles: 14418324 (Simulation time: 0 hr 33 min 6 sec) 

% increase in all ip prefetch 415.23
% increase in all ip prefetch -0.91555
Heartbeat CPU 0 instructions: 60000000 cycles: 30495884 heartbeat IPC: 0.621985 cumulative IPC: 0.621985 (Simulation time: 0 hr 38 min 57 sec) 
Heartbeat CPU 0 instructions: 70000002 cycles: 46637551 heartbeat IPC: 0.619515 cumulative IPC: 0.620747 (Simulation time: 0 hr 44 min 16 sec) 
Heartbeat CPU 0 instructions: 80000001 cycles: 62635250 heartbeat IPC: 0.62509 cumulative IPC: 0.622188 (Simulation time: 0 hr 48 min 53 sec) 
*** Reached end of trace for Core: 0 Repeating trace: ../IPC-traces//server_030.champsimtrace.xz
Heartbeat CPU 0 instructions: 90000002 cycles: 78698663 heartbeat IPC: 0.622533 cumulative IPC: 0.622274 (Simulation time: 0 hr 52 min 19 sec) 
Heartbeat CPU 0 instructions: 100000000 cycles: 94591924 heartbeat IPC: 0.629197 cumulative IPC: 0.623647 (Simulation time: 0 hr 55 min 40 sec) 
Finished CPU 0 instructions: 50000002 cycles: 80173601 cumulative IPC: 0.623647 (Simulation time: 0 hr 55 min 40 sec) 

ChampSim completed all CPUs

Region of Interest Statistics

CPU 0 cumulative IPC: 0.623647 instructions: 50000002 cycles: 80173601

CPU 0 Average Load ROB stall cycles: 1.94592e+07
CPU 0 Fraction of times ROB stalled by Loads: 35.6668
CPU 0 Percentage of Load stall cycles in Total stall cycles: 2.76316e+08
Issued all: 28213330
Issued LT all: 22305766
rob_not_full_when_issued_lt_all: 22264025
Issued LT one: 17397838
rob_not_full_when_issued_lt_one: 17362211
 Total stall cycles: 67593785
 Total load stall cycles: 186772121525991
CPU 0 NUM of IPS identified critical: 0
CPU 0 Num of Load IPs stalling ROB: 10841
Threshold modification factor: -1
Max PIST entries: 64
Min PIST entries: 0
Avg PIST entries: 32
Trouble in retire width: 0.897217
MaC = Marked as critical.
lt_50_percent_before_Mac: 0
gt_90_percent_before_Mac: 0
gt_75_percent_before_Mac: 0
gt_50_percent_before_Mac: 0
stall_proportion_bin_same_before_after: 0
stall_proportion_bin_lower_before_after: 0
stall_proportion_bin_upper_before_after: 0
average_stall_proportion_before: -nan
average_stall_proportion_after: -nan
Critical IP stalls, total frequency: 0
Non-critical IP stalls, total frequency: 3423346
Total Freq all stalling IPs: 3423346
stat_90_percent_critical_ip_stalls_freq: 3081352
stat_90_percent_non_critical_ip_stalls_freq: 341994
Critical_IP_ROB_Stalls_Bucket_0: 0
Non-critical_IP_ROB_Stalls_Bucket_0: 2448692
Critical_IP_ROB_Stalls_Bucket_1: 0
Non-critical_IP_ROB_Stalls_Bucket_1: 698434
Critical_IP_ROB_Stalls_Bucket_2: 0
Non-critical_IP_ROB_Stalls_Bucket_2: 209410
Critical_IP_ROB_Stalls_Bucket_3: 0
Non-critical_IP_ROB_Stalls_Bucket_3: 45095
Critical_IP_ROB_Stalls_Bucket_4: 0
Non-critical_IP_ROB_Stalls_Bucket_4: 11715
Critical_IP_ROB_Stalls_Bucket_5: 0
Non-critical_IP_ROB_Stalls_Bucket_5: 4887
Critical_IP_ROB_Stalls_Bucket_6: 0
Non-critical_IP_ROB_Stalls_Bucket_6: 5113
0 => IPs accounting for >50 percent of stalls, 1 => 55, 2 => 60, 3 => 65 and so on till 90.
percent50: 50.0215 num IPs:  466
percent55: 55.0081 num IPs: 663
percent60: 60.0167 num IPs: 877
percent65: 65.0022 num IPs: 1091
percent70: 70.0048 num IPs: 1311
percent75: 75.0047 num IPs: 1538
percent80: 80.0126 num IPs: 1768
percent85: 85.0093 num IPs: 2010
percent90: 90.01 num IPs: 2298
Critical_ROB_Stalls_Percent_0_Bucket_0: 1071715
Non-critical_ROB_Stalls_Percent_0_Bucket_0: 1376977
Critical_ROB_Stalls_Percent_0_Bucket_1: 431956
Non-critical_ROB_Stalls_Percent_0_Bucket_1: 266478
Critical_ROB_Stalls_Percent_0_Bucket_2: 149276
Non-critical_ROB_Stalls_Percent_0_Bucket_2: 60134
Critical_ROB_Stalls_Percent_0_Bucket_3: 40809
Non-critical_ROB_Stalls_Percent_0_Bucket_3: 4286
Critical_ROB_Stalls_Percent_0_Bucket_4: 9842
Non-critical_ROB_Stalls_Percent_0_Bucket_4: 1873
Critical_ROB_Stalls_Percent_0_Bucket_5: 4207
Non-critical_ROB_Stalls_Percent_0_Bucket_5: 680
Critical_ROB_Stalls_Percent_0_Bucket_6: 4605
Non-critical_ROB_Stalls_Percent_0_Bucket_6: 508
Critical_ROB_Stalls_Percent_1_Bucket_0: 1203363
Non-critical_ROB_Stalls_Percent_1_Bucket_0: 1245329
Critical_ROB_Stalls_Percent_1_Bucket_1: 460189
Non-critical_ROB_Stalls_Percent_1_Bucket_1: 238245
Critical_ROB_Stalls_Percent_1_Bucket_2: 158475
Non-critical_ROB_Stalls_Percent_1_Bucket_2: 50935
Critical_ROB_Stalls_Percent_1_Bucket_3: 41617
Non-critical_ROB_Stalls_Percent_1_Bucket_3: 3478
Critical_ROB_Stalls_Percent_1_Bucket_4: 10618
Non-critical_ROB_Stalls_Percent_1_Bucket_4: 1097
Critical_ROB_Stalls_Percent_1_Bucket_5: 4238
Non-critical_ROB_Stalls_Percent_1_Bucket_5: 649
Critical_ROB_Stalls_Percent_1_Bucket_6: 4619
Non-critical_ROB_Stalls_Percent_1_Bucket_6: 494
Critical_ROB_Stalls_Percent_2_Bucket_0: 1335669
Non-critical_ROB_Stalls_Percent_2_Bucket_0: 1113023
Critical_ROB_Stalls_Percent_2_Bucket_1: 493189
Non-critical_ROB_Stalls_Percent_2_Bucket_1: 205245
Critical_ROB_Stalls_Percent_2_Bucket_2: 164548
Non-critical_ROB_Stalls_Percent_2_Bucket_2: 44862
Critical_ROB_Stalls_Percent_2_Bucket_3: 41686
Non-critical_ROB_Stalls_Percent_2_Bucket_3: 3409
Critical_ROB_Stalls_Percent_2_Bucket_4: 10629
Non-critical_ROB_Stalls_Percent_2_Bucket_4: 1086
Critical_ROB_Stalls_Percent_2_Bucket_5: 4238
Non-critical_ROB_Stalls_Percent_2_Bucket_5: 649
Critical_ROB_Stalls_Percent_2_Bucket_6: 4619
Non-critical_ROB_Stalls_Percent_2_Bucket_6: 494
Critical_ROB_Stalls_Percent_3_Bucket_0: 1457310
Non-critical_ROB_Stalls_Percent_3_Bucket_0: 991382
Critical_ROB_Stalls_Percent_3_Bucket_1: 533826
Non-critical_ROB_Stalls_Percent_3_Bucket_1: 164608
Critical_ROB_Stalls_Percent_3_Bucket_2: 172669
Non-critical_ROB_Stalls_Percent_3_Bucket_2: 36741
Critical_ROB_Stalls_Percent_3_Bucket_3: 41951
Non-critical_ROB_Stalls_Percent_3_Bucket_3: 3144
Critical_ROB_Stalls_Percent_3_Bucket_4: 10638
Non-critical_ROB_Stalls_Percent_3_Bucket_4: 1077
Critical_ROB_Stalls_Percent_3_Bucket_5: 4238
Non-critical_ROB_Stalls_Percent_3_Bucket_5: 649
Critical_ROB_Stalls_Percent_3_Bucket_6: 4619
Non-critical_ROB_Stalls_Percent_3_Bucket_6: 494
Critical_ROB_Stalls_Percent_4_Bucket_0: 1594832
Non-critical_ROB_Stalls_Percent_4_Bucket_0: 853860
Critical_ROB_Stalls_Percent_4_Bucket_1: 559343
Non-critical_ROB_Stalls_Percent_4_Bucket_1: 139091
Critical_ROB_Stalls_Percent_4_Bucket_2: 180177
Non-critical_ROB_Stalls_Percent_4_Bucket_2: 29233
Critical_ROB_Stalls_Percent_4_Bucket_3: 42348
Non-critical_ROB_Stalls_Percent_4_Bucket_3: 2747
Critical_ROB_Stalls_Percent_4_Bucket_4: 10914
Non-critical_ROB_Stalls_Percent_4_Bucket_4: 801
Critical_ROB_Stalls_Percent_4_Bucket_5: 4276
Non-critical_ROB_Stalls_Percent_4_Bucket_5: 611
Critical_ROB_Stalls_Percent_4_Bucket_6: 4619
Non-critical_ROB_Stalls_Percent_4_Bucket_6: 494
Critical_ROB_Stalls_Percent_5_Bucket_0: 1728127
Non-critical_ROB_Stalls_Percent_5_Bucket_0: 720565
Critical_ROB_Stalls_Percent_5_Bucket_1: 588465
Non-critical_ROB_Stalls_Percent_5_Bucket_1: 109969
Critical_ROB_Stalls_Percent_5_Bucket_2: 188807
Non-critical_ROB_Stalls_Percent_5_Bucket_2: 20603
Critical_ROB_Stalls_Percent_5_Bucket_3: 42452
Non-critical_ROB_Stalls_Percent_5_Bucket_3: 2643
Critical_ROB_Stalls_Percent_5_Bucket_4: 10920
Non-critical_ROB_Stalls_Percent_5_Bucket_4: 795
Critical_ROB_Stalls_Percent_5_Bucket_5: 4276
Non-critical_ROB_Stalls_Percent_5_Bucket_5: 611
Critical_ROB_Stalls_Percent_5_Bucket_6: 4619
Non-critical_ROB_Stalls_Percent_5_Bucket_6: 494
Critical_ROB_Stalls_Percent_6_Bucket_0: 1873187
Non-critical_ROB_Stalls_Percent_6_Bucket_0: 575505
Critical_ROB_Stalls_Percent_6_Bucket_1: 610415
Non-critical_ROB_Stalls_Percent_6_Bucket_1: 88019
Critical_ROB_Stalls_Percent_6_Bucket_2: 193207
Non-critical_ROB_Stalls_Percent_6_Bucket_2: 16203
Critical_ROB_Stalls_Percent_6_Bucket_3: 42481
Non-critical_ROB_Stalls_Percent_6_Bucket_3: 2614
Critical_ROB_Stalls_Percent_6_Bucket_4: 10922
Non-critical_ROB_Stalls_Percent_6_Bucket_4: 793
Critical_ROB_Stalls_Percent_6_Bucket_5: 4278
Non-critical_ROB_Stalls_Percent_6_Bucket_5: 609
Critical_ROB_Stalls_Percent_6_Bucket_6: 4619
Non-critical_ROB_Stalls_Percent_6_Bucket_6: 494
Critical_ROB_Stalls_Percent_7_Bucket_0: 2021888
Non-critical_ROB_Stalls_Percent_7_Bucket_0: 426804
Critical_ROB_Stalls_Percent_7_Bucket_1: 629922
Non-critical_ROB_Stalls_Percent_7_Bucket_1: 68512
Critical_ROB_Stalls_Percent_7_Bucket_2: 195890
Non-critical_ROB_Stalls_Percent_7_Bucket_2: 13520
Critical_ROB_Stalls_Percent_7_Bucket_3: 42639
Non-critical_ROB_Stalls_Percent_7_Bucket_3: 2456
Critical_ROB_Stalls_Percent_7_Bucket_4: 10924
Non-critical_ROB_Stalls_Percent_7_Bucket_4: 791
Critical_ROB_Stalls_Percent_7_Bucket_5: 4278
Non-critical_ROB_Stalls_Percent_7_Bucket_5: 609
Critical_ROB_Stalls_Percent_7_Bucket_6: 4619
Non-critical_ROB_Stalls_Percent_7_Bucket_6: 494
Critical_ROB_Stalls_Percent_8_Bucket_0: 2169330
Non-critical_ROB_Stalls_Percent_8_Bucket_0: 279362
Critical_ROB_Stalls_Percent_8_Bucket_1: 649973
Non-critical_ROB_Stalls_Percent_8_Bucket_1: 48461
Critical_ROB_Stalls_Percent_8_Bucket_2: 199029
Non-critical_ROB_Stalls_Percent_8_Bucket_2: 10381
Critical_ROB_Stalls_Percent_8_Bucket_3: 43048
Non-critical_ROB_Stalls_Percent_8_Bucket_3: 2047
Critical_ROB_Stalls_Percent_8_Bucket_4: 11037
Non-critical_ROB_Stalls_Percent_8_Bucket_4: 678
Critical_ROB_Stalls_Percent_8_Bucket_5: 4295
Non-critical_ROB_Stalls_Percent_8_Bucket_5: 592
Critical_ROB_Stalls_Percent_8_Bucket_6: 4640
Non-critical_ROB_Stalls_Percent_8_Bucket_6: 473
Average ROB occupancy Load Stall Begin: 34.4837
Average ROB occupancy Load Stall End: 43.0193
Min ROB occupancy Load Stall Begin: 1
Max ROB occupancy Load Stall Begin: 352
Min ROB occupancy Load Stall End: 1
Max ROB occupancy Load Stall End: 352
Average ROB occupancy Critical Load Stall Begin: -nan
Average ROB occupancy Critical Load Stall End: -nan
Min ROB occupancy Critical Load Stall Begin: 400
Max ROB occupancy Critical Load Stall Begin: 0
Min ROB occupancy Critical Load Stall End: 400
Max ROB occupancy Critical Load Stall End: 0
 ROB Load Stall Begin Bucket Count 0: 2699722
 ROB Load Stall End Bucket Count 0: 2448692
 ROB Critical Load Stall Begin Bucket Count 0: 0
 ROB Critical Load Stall End Bucket Count 0: 0
 ROB Load Stall Begin Bucket Count 1: 521754
 ROB Load Stall End Bucket Count 1: 698434
 ROB Critical Load Stall Begin Bucket Count 1: 0
 ROB Critical Load Stall End Bucket Count 1: 0
 ROB Load Stall Begin Bucket Count 2: 149373
 ROB Load Stall End Bucket Count 2: 209410
 ROB Critical Load Stall Begin Bucket Count 2: 0
 ROB Critical Load Stall End Bucket Count 2: 0
 ROB Load Stall Begin Bucket Count 3: 34436
 ROB Load Stall End Bucket Count 3: 45095
 ROB Critical Load Stall Begin Bucket Count 3: 0
 ROB Critical Load Stall End Bucket Count 3: 0
 ROB Load Stall Begin Bucket Count 4: 9433
 ROB Load Stall End Bucket Count 4: 11715
 ROB Critical Load Stall Begin Bucket Count 4: 0
 ROB Critical Load Stall End Bucket Count 4: 0
 ROB Load Stall Begin Bucket Count 5: 4481
 ROB Load Stall End Bucket Count 5: 4887
 ROB Critical Load Stall Begin Bucket Count 5: 0
 ROB Critical Load Stall End Bucket Count 5: 0
 ROB Load Stall Begin Bucket Count 6: 4147
 ROB Load Stall End Bucket Count 6: 5113
 ROB Critical Load Stall Begin Bucket Count 6: 0
 ROB Critical Load Stall End Bucket Count 6: 0
PIST Tag Read Accesses: 2469854
PIST Read Accesses: 1234927
PIST Tag Write Accesses: 2469854
PIST Write Accesses: 1234927
Criticality detector called times: 3401957
Max global_stall_cycles_count: 1984620
Threshold Modified: 1 times, factor: -1
Sturdy critical IP cache stats: 
 Unused entries: 0
CIC Tag Read Accesses: 0
CIC Read Accesses: 0
CIC Tag Write Accesses: 0
CIC Write Accesses: 0
Wobbly critical IP cache stats: 
 Unused entries: 126
CIC Tag Read Accesses: 83375192
CIC Read Accesses: 0
CIC Tag Write Accesses: 2
CIC Write Accesses: 0
ITLB TOTAL     ACCESS:   10467257  HIT:    9735074  MISS:     732183  HIT %:     93.005  MISS %:    6.99498   MPKI: 14.6437
ITLB LOAD TRANSLATION ACCESS:    8332509  HIT:    8270882  MISS:      61627  HIT %:    99.2604  MISS %:   0.739597   MPKI: 1.23254
ITLB TRANSLATION FROM L1D PREFETCHER ACCESS:    2134748  HIT:    1464192  MISS:     670556  HIT %:    68.5885  MISS %:    31.4115   MPKI: 13.4111
ITLB PREFETCH  REQUESTED:          0  ISSUED:          0  USEFUL:     543049  USELESS:     127505
ITLB USEFUL LOAD PREFETCHES:     543049 PREFETCH ISSUED TO LOWER LEVEL:          0  ACCURACY: inf
ITLB TIMELY PREFETCHES:     543049 LATE PREFETCHES: 191 DROPPED PREFETCHES: 5264
ITLB PREFETCHES SAME FILL-ORIGIN LEVEL: 0 DIFFERENT FILL-ORIGIN LEVEL: 0
ITLB AVERAGE MISS LATENCY: 11961.5 cycles
ITLB RQ	ACCESS:   15792992	FORWARD:          0	MERGED:    5278941	TO_CACHE:   10514051

DTLB TOTAL     ACCESS:   11229600  HIT:   10704317  MISS:     525283  HIT %:    95.3223  MISS %:    4.67766   MPKI: 10.5057
DTLB LOAD TRANSLATION ACCESS:   11229600  HIT:   10704317  MISS:     525283  HIT %:    95.3223  MISS %:    4.67766   MPKI: 10.5057
DTLB PREFETCH  REQUESTED:          0  ISSUED:          0  USEFUL:          0  USELESS:          0
DTLB USEFUL LOAD PREFETCHES:          0 PREFETCH ISSUED TO LOWER LEVEL:          0  ACCURACY: -nan
DTLB TIMELY PREFETCHES:          0 LATE PREFETCHES: 0 DROPPED PREFETCHES: 0
DTLB PREFETCHES SAME FILL-ORIGIN LEVEL: 0 DIFFERENT FILL-ORIGIN LEVEL: 0
DTLB AVERAGE MISS LATENCY: 9.35944 cycles
DTLB RQ	ACCESS:   14752030	FORWARD:          0	MERGED:    3494029	TO_CACHE:   11258001

STLB TOTAL     ACCESS:    1278342  HIT:    1269128  MISS:       9214  HIT %:    99.2792  MISS %:   0.720777   MPKI: 0.18428
STLB LOAD TRANSLATION ACCESS:     586719  HIT:     581528  MISS:       5191  HIT %:    99.1152  MISS %:   0.884751   MPKI: 0.10382
STLB TRANSLATION FROM L1D PREFETCHER ACCESS:     691623  HIT:     687600  MISS:       4023  HIT %:    99.4183  MISS %:   0.581675   MPKI: 0.08046
STLB PREFETCH  REQUESTED:          0  ISSUED:          0  USEFUL:       2729  USELESS:       1295
STLB USEFUL LOAD PREFETCHES:       2729 PREFETCH ISSUED TO LOWER LEVEL:          0  ACCURACY: inf
STLB TIMELY PREFETCHES:       2729 LATE PREFETCHES: 0 DROPPED PREFETCHES: 5264
STLB PREFETCHES SAME FILL-ORIGIN LEVEL: 0 DIFFERENT FILL-ORIGIN LEVEL: 0
STLB AVERAGE MISS LATENCY: 28.8558 cycles
STLB RQ	ACCESS:    1298136	FORWARD:          0	MERGED:      14530	TO_CACHE:    1283606

STLB Hit, L1D data hit: 0
STLB Hit, L2C data hit: 0
STLB Hit, LLC data hit: 0
STLB Hit, LLC data miss: 0
STLB STLB hints to L2: 0
L1D TOTAL     ACCESS:   14258988  HIT:   12787060  MISS:    1471928  HIT %:    89.6772  MISS %:    10.3228   MPKI: 29.4386
L1D LOAD      ACCESS:    7959216  HIT:    6816093  MISS:    1143123  HIT %:    85.6377  MISS %:    14.3623   MPKI: 22.8625
L1D RFO       ACCESS:    6267642  HIT:    5958550  MISS:     309092  HIT %:    95.0684  MISS %:    4.93155   MPKI: 6.18184
L1D PREFETCH  ACCESS:      32130  HIT:      12417  MISS:      19713  HIT %:    38.6461  MISS %:    61.3539   MPKI: 0.39426
L1D PREFETCH  REQUESTED:      70822  ISSUED:      70822  USEFUL:      10999  USELESS:       8858
L1D USEFUL LOAD PREFETCHES:      10999 PREFETCH ISSUED TO LOWER LEVEL:      22007  ACCURACY: 49.9796
L1D TIMELY PREFETCHES:      10999 LATE PREFETCHES: 2279 DROPPED PREFETCHES: 0
L1D PREFETCHES SAME FILL-ORIGIN LEVEL: 22007 DIFFERENT FILL-ORIGIN LEVEL: 0
L1D AVERAGE MISS LATENCY: 26257.9 cycles
L1D RQ	ACCESS:   11308091	FORWARD:          0	MERGED:    3161749	TO_CACHE:    7996571
L1D WQ	ACCESS:    6823740	FORWARD:     149781	MERGED:      68281	TO_CACHE:    6755459
L1D PQ	ACCESS:      35416	FORWARD:          0	MERGED:          0	TO_CACHE:      35406

L1D UNIQUE REGIONS ACCESSED: 0
L1D REGIONS CONFLICTS: 0
L1D Cross Page Prefetch Requests: 0
L1D Same Page Prefetch Requests: 842113
L1D ROI Sum of L1D PQ occupancy: 455148
L1D PREFETCHES PUSHED FROM L2C: 0
L1I TOTAL     ACCESS:   15698373  HIT:   11497880  MISS:    4200493  HIT %:    73.2425  MISS %:    26.7575   MPKI: 84.0099
L1I LOAD      ACCESS:    9805554  HIT:    9698758  MISS:     106796  HIT %:    98.9109  MISS %:    1.08914   MPKI: 2.13592
L1I PREFETCH  ACCESS:    5892819  HIT:    1799122  MISS:    4093697  HIT %:    30.5308  MISS %:    69.4692   MPKI: 81.8739
L1I PREFETCH  REQUESTED:    6105136  ISSUED:    6096158  USEFUL:    2944399  USELESS:    1149292
L1I USEFUL LOAD PREFETCHES:    2944399 PREFETCH ISSUED TO LOWER LEVEL:    4110279  ACCURACY: 71.635
L1I TIMELY PREFETCHES:    2944399 LATE PREFETCHES: 16582 DROPPED PREFETCHES: 11722
L1I PREFETCHES SAME FILL-ORIGIN LEVEL: 4110279 DIFFERENT FILL-ORIGIN LEVEL: 0
L1I AVERAGE MISS LATENCY: 210023 cycles
L1I RQ	ACCESS:   13558226	FORWARD:          0	MERGED:    3741685	TO_CACHE:    9816541
L1I PQ	ACCESS:    6096158	FORWARD:          0	MERGED:     119707	TO_CACHE:    5976451

BTB TOTAL     ACCESS:    6033516  HIT:    4123215  MISS:    1910301  HIT %:    68.3385  MISS %:    31.6615   MPKI: 38.206
BTB BRANCH_DIRECT_JUMP	ACCESS:     490939  HIT:     331427  MISS:     159512
BTB BRANCH_INDIRECT	ACCESS:     175853  HIT:     140870  MISS:      34983
BTB BRANCH_CONDITIONAL	ACCESS:    2983032  HIT:    2460633  MISS:     522399
BTB BRANCH_DIRECT_CALL	ACCESS:    1002064  HIT:     623208  MISS:     378856
BTB BRANCH_INDIRECT_CALL	ACCESS:     189782  HIT:     117779  MISS:      72003
BTB BRANCH_RETURN	ACCESS:    1191846  HIT:     449298  MISS:     742548
BTB BRANCH_OTHER ACCESS:          0  HIT:          0  MISS:          0

L2C TOTAL     ACCESS:    6283301  HIT:    5801592  MISS:     481709  HIT %:    92.3335  MISS %:     7.6665   MPKI: 9.63418
L2C LOAD      ACCESS:    1230948  HIT:    1086278  MISS:     144670  HIT %:    88.2473  MISS %:    11.7527   MPKI: 2.8934
L2C DATA LOAD MPKI: 2.63176
L2C INSTRUCTION LOAD MPKI: 0.26164
L2C RFO       ACCESS:     309077  HIT:     278999  MISS:      30078  HIT %:    90.2684  MISS %:    9.73156   MPKI: 0.60156
L2C PREFETCH  ACCESS:    4132283  HIT:    3842385  MISS:     289898  HIT %:    92.9846  MISS %:    7.01544   MPKI: 5.79796
L2C DATA PREFETCH MPKI: 0.12156
L2C INSTRUCTION PREFETCH MPKI: 5.6764
L2C WRITEBACK ACCESS:     596094  HIT:     581167  MISS:      14927  HIT %:    97.4959  MISS %:    2.50414   MPKI: 0.29854
L2C LOAD TRANSLATION ACCESS:       5400  HIT:       3731  MISS:       1669  HIT %:    69.0926  MISS %:    30.9074   MPKI: 0.03338
L2C TRANSLATION FROM L1D PREFETCHER ACCESS:       9499  HIT:       9032  MISS:        467  HIT %:    95.0837  MISS %:    4.91631   MPKI: 0.00934
L2C PREFETCH  REQUESTED:          0  ISSUED:          0  USEFUL:       3218  USELESS:     288492
L2C USEFUL LOAD PREFETCHES:       3218 PREFETCH ISSUED TO LOWER LEVEL:     289898  ACCURACY: 1.11005
L2C TIMELY PREFETCHES:       3218 LATE PREFETCHES: 0 DROPPED PREFETCHES: 0
L2C PREFETCHES SAME FILL-ORIGIN LEVEL: 0 DIFFERENT FILL-ORIGIN LEVEL: 0
L2C AVERAGE MISS LATENCY: 32.0103 cycles
L2C RQ	ACCESS:    1555034	FORWARD:          0	MERGED:          0	TO_CACHE:    1554924
L2C WQ	ACCESS:     596094	FORWARD:        113	MERGED:          0	TO_CACHE:     596094
L2C PQ	ACCESS:    4132286	FORWARD:          0	MERGED:          0	TO_CACHE:    4132283

L2C Instructions Evicting Data 106695
L2C Translations Evicting Data 1049
L2C Data Evicting Data 69992
L2C Instructions Evicting Instructions 189216
L2C Translations Evicting Instructions 1036
L2C Data Evicting Instructions 96699
L2C Instructions Evicting Translations 991
L2C Translations Evicting Translations 51
L2C Data Evicting Translations 1053
L2C Dense regions hint from L2: 0
PSCL5 TOTAL     ACCESS:      14478  HIT:      14478  MISS:          0  HIT %:        100  MISS %:          0   MPKI: 0
PSCL5 LOAD TRANSLATION ACCESS:       5191  HIT:       5191  MISS:          0  HIT %:        100  MISS %:          0   MPKI: 0
PSCL5 TRANSLATION FROM L1D PREFETCHER ACCESS:       9287  HIT:       9287  MISS:          0  HIT %:        100  MISS %:          0   MPKI: 0
PSCL5 PREFETCH  REQUESTED:          0  ISSUED:          0  USEFUL:          0  USELESS:          0
PSCL5 USEFUL LOAD PREFETCHES:          0 PREFETCH ISSUED TO LOWER LEVEL:          0  ACCURACY: -nan
PSCL5 TIMELY PREFETCHES:          0 LATE PREFETCHES: 0 DROPPED PREFETCHES: 0
PSCL5 PREFETCHES SAME FILL-ORIGIN LEVEL: 0 DIFFERENT FILL-ORIGIN LEVEL: 0

PSCL4 TOTAL     ACCESS:       7601  HIT:       7593  MISS:          8  HIT %:    99.8948  MISS %:   0.105249   MPKI: 0.00016
PSCL4 LOAD TRANSLATION ACCESS:       2883  HIT:       2875  MISS:          8  HIT %:    99.7225  MISS %:   0.277489   MPKI: 0.00016
PSCL4 TRANSLATION FROM L1D PREFETCHER ACCESS:       4718  HIT:       4718  MISS:          0  HIT %:        100  MISS %:          0   MPKI: 0
PSCL4 PREFETCH  REQUESTED:          0  ISSUED:          0  USEFUL:          0  USELESS:          0
PSCL4 USEFUL LOAD PREFETCHES:          0 PREFETCH ISSUED TO LOWER LEVEL:          0  ACCURACY: -nan
PSCL4 TIMELY PREFETCHES:          0 LATE PREFETCHES: 0 DROPPED PREFETCHES: 0
PSCL4 PREFETCHES SAME FILL-ORIGIN LEVEL: 0 DIFFERENT FILL-ORIGIN LEVEL: 0

PSCL3 TOTAL     ACCESS:      14201  HIT:      14186  MISS:         15  HIT %:    99.8944  MISS %:   0.105626   MPKI: 0.0003
PSCL3 LOAD TRANSLATION ACCESS:       5073  HIT:       5058  MISS:         15  HIT %:    99.7043  MISS %:   0.295683   MPKI: 0.0003
PSCL3 TRANSLATION FROM L1D PREFETCHER ACCESS:       9128  HIT:       9128  MISS:          0  HIT %:        100  MISS %:          0   MPKI: 0
PSCL3 PREFETCH  REQUESTED:          0  ISSUED:          0  USEFUL:          0  USELESS:          0
PSCL3 USEFUL LOAD PREFETCHES:          0 PREFETCH ISSUED TO LOWER LEVEL:          0  ACCURACY: -nan
PSCL3 TIMELY PREFETCHES:          0 LATE PREFETCHES: 0 DROPPED PREFETCHES: 0
PSCL3 PREFETCHES SAME FILL-ORIGIN LEVEL: 0 DIFFERENT FILL-ORIGIN LEVEL: 0

PSCL2 TOTAL     ACCESS:      14372  HIT:      14092  MISS:        280  HIT %:    98.0518  MISS %:    1.94823   MPKI: 0.0056
PSCL2 LOAD TRANSLATION ACCESS:       5280  HIT:       5000  MISS:        280  HIT %:     94.697  MISS %:    5.30303   MPKI: 0.0056
PSCL2 TRANSLATION FROM L1D PREFETCHER ACCESS:       9092  HIT:       9092  MISS:          0  HIT %:        100  MISS %:          0   MPKI: 0
PSCL2 PREFETCH  REQUESTED:          0  ISSUED:          0  USEFUL:          0  USELESS:          0
PSCL2 USEFUL LOAD PREFETCHES:          0 PREFETCH ISSUED TO LOWER LEVEL:          0  ACCURACY: -nan
PSCL2 TIMELY PREFETCHES:          0 LATE PREFETCHES: 0 DROPPED PREFETCHES: 0
PSCL2 PREFETCHES SAME FILL-ORIGIN LEVEL: 0 DIFFERENT FILL-ORIGIN LEVEL: 0

LLC TOTAL     ACCESS:     512178  HIT:     501563  MISS:      10615  HIT %:    97.9275  MISS %:    2.07252   MPKI: 0.2123
LLC LOAD      ACCESS:     144670  HIT:     137135  MISS:       7535  HIT %:    94.7916  MISS %:    5.20841   MPKI: 0.1507
LLC RFO       ACCESS:      30078  HIT:      28195  MISS:       1883  HIT %:    93.7396  MISS %:    6.26039   MPKI: 0.03766
LLC PREFETCH  ACCESS:     289898  HIT:     288821  MISS:       1077  HIT %:    99.6285  MISS %:    0.37151   MPKI: 0.02154
LLC WRITEBACK ACCESS:      45396  HIT:      45315  MISS:         81  HIT %:    99.8216  MISS %:    0.17843   MPKI: 0.00162
LLC LOAD TRANSLATION ACCESS:       1669  HIT:       1633  MISS:         36  HIT %:     97.843  MISS %:    2.15698   MPKI: 0.00072
LLC TRANSLATION FROM L1D PREFETCHER ACCESS:        467  HIT:        464  MISS:          3  HIT %:    99.3576  MISS %:   0.642398   MPKI: 6e-05
LLC PREFETCH  REQUESTED:          0  ISSUED:          0  USEFUL:       3489  USELESS:       4363
LLC USEFUL LOAD PREFETCHES:       3489 PREFETCH ISSUED TO LOWER LEVEL:       1077  ACCURACY: 323.955
LLC TIMELY PREFETCHES:       3489 LATE PREFETCHES: 0 DROPPED PREFETCHES: 0
LLC PREFETCHES SAME FILL-ORIGIN LEVEL: 0 DIFFERENT FILL-ORIGIN LEVEL: 0
LLC AVERAGE MISS LATENCY: 133.075 cycles
LLC RQ	ACCESS:     176884	FORWARD:          0	MERGED:          0	TO_CACHE:     176884
LLC WQ	ACCESS:      45396	FORWARD:          0	MERGED:          0	TO_CACHE:      45396
LLC PQ	ACCESS:     289898	FORWARD:          0	MERGED:          0	TO_CACHE:     289898

LLC Dense regions hint to LLC: 0

RAW hits: 1081680
Loads Generated: 12389772
Loads sent to L1D: 11308091
Stores Generated: 6823741
Stores sent to L1D: 6823740
Major fault: 0 Minor fault: 2136
Allocated PAGES: 2136
I-Shadow cache 408 bytes
Touched + WorthPF tables 6144 bytes 
MMA filter 174 bytes 
FNL filter 272 bytes 
TOTAL PREFETCHER STORAGE SIZE: 25174 bytes
CPU 0 L1I next line prefetcher final stats

stream: 
stream:times selected: 1707432
stream:pref_filled: 95335
stream:pref_useful: 21819
stream:pref_late: 5411
stream:misses: 20873
stream:misses_by_poll: 0

CS: 
CS:times selected: 237131
CS:pref_filled: 57899
CS:pref_useful: 46042
CS:pref_late: 1887
CS:misses: 118830
CS:misses_by_poll: 0

CPLX: 
CPLX:times selected: 1466947
CPLX:pref_filled: 351766
CPLX:pref_useful: 215630
CPLX:pref_late: 6249
CPLX:misses: 329082
CPLX:misses_by_poll: 11

NL_L1: 
NL:times selected: 2814
NL:pref_filled: 361
NL:pref_useful: 44
NL:pref_late: 3
NL:misses: 180
NL:misses_by_poll: 0

total selections: 3414324
total_filled: 19713
total_useful: 10999
total_late: 16908
total_polluted: 11
total_misses_after_warmup: 1180477
conflicts: 3006589
Degree Incremented Times: 282192
Degree Decremented Times: 36245

L1 IP Table Write Accesses: 4735287
L1 IP Table Read Accesses: 1728698
L1 RST Write Accesses: 846318
L1 RST Read Accesses: 1692636
L1 CSPT Write Accesses: 846318
L1 CSPT Read Accesses: 2761396
L1 RR Filter Tag Write Accesses: 35416
L1 RR Filter Tag Read Accesses: 2944009
L1 IP Table Tag Write Accesses: 7996570
L1 IP Table Tag Read Accesses: 7996570
L1 RST Tag Write Accesses: 0
L1 RST Tag Read Accesses: 7320672
L1 RR Filter Write Accesses: 0
L1 RR Filter Read Accesses: 106492
test: 236852

DRAM Statistics
 CHANNEL 0
 RQ ROW_BUFFER_HIT:       4156  ROW_BUFFER_MISS:       6378
 DBUS_CONGESTED:          3
 WQ ROW_BUFFER_HIT:        172  ROW_BUFFER_MISS:       1451  FULL:          0

 AVG_CONGESTED_CYCLE: 4
 All warmup complete: 2
Channel 0 Bank busy for read cycles: 0
Channel 0 Bank busy for write cycles: 0
Channel 0
Rank 0
0banks busy for read cycles: 78914602
0banks busy for write cycles: 896
1banks busy for read cycles: 840399
1banks busy for write cycles: 191001
2banks busy for read cycles: 55148
2banks busy for write cycles: 57967
3banks busy for read cycles: 23363
3banks busy for write cycles: 29150
4banks busy for read cycles: 6709
4banks busy for write cycles: 22473
5banks busy for read cycles: 2911
5banks busy for write cycles: 8311
6banks busy for read cycles: 3123
6banks busy for write cycles: 4722
7banks busy for read cycles: 3582
7banks busy for write cycles: 1928
8banks busy for read cycles: 7317
8banks busy for write cycles: 0

CPU 0 Branch Prediction Accuracy: 99.8445% MPKI: 0.29148 Average ROB Occupancy at Mispredict: 79.545
Branch types
NOT_BRANCH: 40627788 81.2556%
BRANCH_DIRECT_JUMP: 490939 0.981878%
BRANCH_INDIRECT: 175853 0.351706%
BRANCH_CONDITIONAL: 6321387 12.6428%
BRANCH_DIRECT_CALL: 1002064 2.00413%
BRANCH_INDIRECT_CALL: 189782 0.379564%
BRANCH_RETURN: 1191846 2.38369%
BRANCH_OTHER: 0 0%

DRAM PAGES: 1048576
Allocated PAGES: 2136
