
*** ChampSim Multicore Out-of-Order Simulator ***

Warmup Instructions: 50000000
Simulation Instructions: 50000000
Number of CPUs: 1
LLC sets: 2048
LLC ways: 16
Off-chip DRAM Size: 4096 MB Channels: 1 Width: 64-bit Data Rate: 6400 MT/s
CPU 0 runs ../IPC-traces//server_017.champsimtrace.xz
.xz
BTB has LRU replacement policy
ITLB has LRU replacement policy
DTLB has LRU replacement policy
STLB has LRU replacement policy
CPU 0 L1I next line prefetcher
L1I has LRU replacement policy
IP Table Entries: 64
L1D has LRU replacement policy
Initialize SRRIP state for L2C
Initialize DRRIP state for LLC
Heartbeat CPU 0 instructions: 10000000 cycles: 3256189 heartbeat IPC: 3.07107 cumulative IPC: 3.07107 (Simulation time: 0 hr 3 min 27 sec) 
Heartbeat CPU 0 instructions: 20000000 cycles: 6510998 heartbeat IPC: 3.07238 cumulative IPC: 3.07173 (Simulation time: 0 hr 6 min 48 sec) 
Heartbeat CPU 0 instructions: 30000002 cycles: 9775343 heartbeat IPC: 3.0634 cumulative IPC: 3.06895 (Simulation time: 0 hr 10 min 13 sec) 
Heartbeat CPU 0 instructions: 40000000 cycles: 13038532 heartbeat IPC: 3.06449 cumulative IPC: 3.06783 (Simulation time: 0 hr 13 min 38 sec) 
Heartbeat CPU 0 instructions: 50000000 cycles: 16321248 heartbeat IPC: 3.04626 cumulative IPC: 3.06349 (Simulation time: 0 hr 16 min 57 sec) 

Warmup complete CPU 0 instructions: 50000004 cycles: 16321249 (Simulation time: 0 hr 16 min 57 sec) 

Heartbeat CPU 0 instructions: 60000000 cycles: 45278653 heartbeat IPC: 0.345335 cumulative IPC: 0.345335 (Simulation time: 0 hr 22 min 19 sec) 
Heartbeat CPU 0 instructions: 70000000 cycles: 74533027 heartbeat IPC: 0.341829 cumulative IPC: 0.343573 (Simulation time: 0 hr 27 min 46 sec) 
Heartbeat CPU 0 instructions: 80000000 cycles: 103462006 heartbeat IPC: 0.345674 cumulative IPC: 0.344271 (Simulation time: 0 hr 32 min 54 sec) 
Heartbeat CPU 0 instructions: 90000003 cycles: 136984092 heartbeat IPC: 0.298311 cumulative IPC: 0.331502 (Simulation time: 0 hr 40 min 13 sec) 
Heartbeat CPU 0 instructions: 100000003 cycles: 169992234 heartbeat IPC: 0.302956 cumulative IPC: 0.32537 (Simulation time: 0 hr 46 min 52 sec) 
Finished CPU 0 instructions: 50000003 cycles: 153671002 cumulative IPC: 0.32537 (Simulation time: 0 hr 46 min 52 sec) 

ChampSim completed all CPUs

Region of Interest Statistics

CPU 0 cumulative IPC: 0.32537 instructions: 50000003 cycles: 153671002

CPU 0 Average Load ROB stall cycles: 4.15332e+07
CPU 0 Fraction of times ROB stalled by Loads: 46.0798
CPU 0 Percentage of Load stall cycles in Total stall cycles: 2.14239e+08
Issued all: 80577824
Issued LT all: 75185973
rob_not_full_when_issued_lt_all: 17119665
Issued LT one: 69553431
rob_not_full_when_issued_lt_one: 13195153
 Total stall cycles: 136874740
 Total load stall cycles: 293238822756550
Unique Load IPs: 6875
CPU 0 NUM of IPS identified critical: 10
CPU 0 Num of Load IPs stalling ROB: 0
Threshold modification factor: 0
Trouble in retire width: -nan
MaC = Marked as critical.
lt_50_percent_before_Mac: 2
gt_90_percent_before_Mac: 1
gt_75_percent_before_Mac: 2
gt_50_percent_before_Mac: 5
stall_proportion_bin_same_before_after: 0
stall_proportion_bin_lower_before_after: 0
stall_proportion_bin_upper_before_after: 0
average_stall_proportion_before: 0.0277528
average_stall_proportion_after: 0.0343129
Critical_IP_Detector_Accuracy_70: 0
Critical_IP_Detector_Accuracy_80: 0
Critical_IP_Detector_Accuracy_90: 0
Critical_IP_Detector_Coverage_70: 0
Critical_IP_Detector_Coverage_80: 0
Critical_IP_Detector_Coverage_90: 0
stat_90_percent_critical_ip_stalls_freq: 259292
stat_90_percent_non_critical_ip_stalls_freq: 18446744073709292324
AVERAGE_ROB_Occupancy_90_Percent_Critical_IP_Stalls: 316.467
AVERAGE_ROB_Occupancy_90_Percent_Non_Critical_IP_Stalls: 2.94713e-11
Critical_IP_ROB_Stalls_Bucket_0: 15940
Non-critical_IP_ROB_Stalls_Bucket_0: 453226
Critical_IP_ROB_Stalls_Bucket_1: 28008
Non-critical_IP_ROB_Stalls_Bucket_1: 566142
Critical_IP_ROB_Stalls_Bucket_2: 38979
Non-critical_IP_ROB_Stalls_Bucket_2: 431796
Critical_IP_ROB_Stalls_Bucket_3: 37410
Non-critical_IP_ROB_Stalls_Bucket_3: 280004
Critical_IP_ROB_Stalls_Bucket_4: 33302
Non-critical_IP_ROB_Stalls_Bucket_4: 150650
Critical_IP_ROB_Stalls_Bucket_5: 33035
Non-critical_IP_ROB_Stalls_Bucket_5: 128382
Critical_IP_ROB_Stalls_Bucket_6: 83716
Non-critical_IP_ROB_Stalls_Bucket_6: 972801
0 => IPs accounting for >50 percent of stalls, 1 => 55, 2 => 60, 3 => 65 and so on till 90.
percent50: inf num IPs:  1
percent55: inf num IPs: 1
percent60: inf num IPs: 1
percent65: inf num IPs: 1
percent70: inf num IPs: 1
percent75: inf num IPs: 1
percent80: inf num IPs: 1
percent85: inf num IPs: 1
percent90: inf num IPs: 1
Critical_ROB_Stalls_Percent_0_Bucket_0: 84
Non-critical_ROB_Stalls_Percent_0_Bucket_0: 469082
Critical_ROB_Stalls_Percent_0_Bucket_1: 3144
Non-critical_ROB_Stalls_Percent_0_Bucket_1: 591006
Critical_ROB_Stalls_Percent_0_Bucket_2: 9813
Non-critical_ROB_Stalls_Percent_0_Bucket_2: 460962
Critical_ROB_Stalls_Percent_0_Bucket_3: 17492
Non-critical_ROB_Stalls_Percent_0_Bucket_3: 299922
Critical_ROB_Stalls_Percent_0_Bucket_4: 12560
Non-critical_ROB_Stalls_Percent_0_Bucket_4: 171392
Critical_ROB_Stalls_Percent_0_Bucket_5: 13140
Non-critical_ROB_Stalls_Percent_0_Bucket_5: 148277
Critical_ROB_Stalls_Percent_0_Bucket_6: 203059
Non-critical_ROB_Stalls_Percent_0_Bucket_6: 853458
Critical_ROB_Stalls_Percent_1_Bucket_0: 84
Non-critical_ROB_Stalls_Percent_1_Bucket_0: 469082
Critical_ROB_Stalls_Percent_1_Bucket_1: 3144
Non-critical_ROB_Stalls_Percent_1_Bucket_1: 591006
Critical_ROB_Stalls_Percent_1_Bucket_2: 9813
Non-critical_ROB_Stalls_Percent_1_Bucket_2: 460962
Critical_ROB_Stalls_Percent_1_Bucket_3: 17492
Non-critical_ROB_Stalls_Percent_1_Bucket_3: 299922
Critical_ROB_Stalls_Percent_1_Bucket_4: 12560
Non-critical_ROB_Stalls_Percent_1_Bucket_4: 171392
Critical_ROB_Stalls_Percent_1_Bucket_5: 13140
Non-critical_ROB_Stalls_Percent_1_Bucket_5: 148277
Critical_ROB_Stalls_Percent_1_Bucket_6: 203059
Non-critical_ROB_Stalls_Percent_1_Bucket_6: 853458
Critical_ROB_Stalls_Percent_2_Bucket_0: 84
Non-critical_ROB_Stalls_Percent_2_Bucket_0: 469082
Critical_ROB_Stalls_Percent_2_Bucket_1: 3144
Non-critical_ROB_Stalls_Percent_2_Bucket_1: 591006
Critical_ROB_Stalls_Percent_2_Bucket_2: 9813
Non-critical_ROB_Stalls_Percent_2_Bucket_2: 460962
Critical_ROB_Stalls_Percent_2_Bucket_3: 17492
Non-critical_ROB_Stalls_Percent_2_Bucket_3: 299922
Critical_ROB_Stalls_Percent_2_Bucket_4: 12560
Non-critical_ROB_Stalls_Percent_2_Bucket_4: 171392
Critical_ROB_Stalls_Percent_2_Bucket_5: 13140
Non-critical_ROB_Stalls_Percent_2_Bucket_5: 148277
Critical_ROB_Stalls_Percent_2_Bucket_6: 203059
Non-critical_ROB_Stalls_Percent_2_Bucket_6: 853458
Critical_ROB_Stalls_Percent_3_Bucket_0: 84
Non-critical_ROB_Stalls_Percent_3_Bucket_0: 469082
Critical_ROB_Stalls_Percent_3_Bucket_1: 3144
Non-critical_ROB_Stalls_Percent_3_Bucket_1: 591006
Critical_ROB_Stalls_Percent_3_Bucket_2: 9813
Non-critical_ROB_Stalls_Percent_3_Bucket_2: 460962
Critical_ROB_Stalls_Percent_3_Bucket_3: 17492
Non-critical_ROB_Stalls_Percent_3_Bucket_3: 299922
Critical_ROB_Stalls_Percent_3_Bucket_4: 12560
Non-critical_ROB_Stalls_Percent_3_Bucket_4: 171392
Critical_ROB_Stalls_Percent_3_Bucket_5: 13140
Non-critical_ROB_Stalls_Percent_3_Bucket_5: 148277
Critical_ROB_Stalls_Percent_3_Bucket_6: 203059
Non-critical_ROB_Stalls_Percent_3_Bucket_6: 853458
Critical_ROB_Stalls_Percent_4_Bucket_0: 84
Non-critical_ROB_Stalls_Percent_4_Bucket_0: 469082
Critical_ROB_Stalls_Percent_4_Bucket_1: 3144
Non-critical_ROB_Stalls_Percent_4_Bucket_1: 591006
Critical_ROB_Stalls_Percent_4_Bucket_2: 9813
Non-critical_ROB_Stalls_Percent_4_Bucket_2: 460962
Critical_ROB_Stalls_Percent_4_Bucket_3: 17492
Non-critical_ROB_Stalls_Percent_4_Bucket_3: 299922
Critical_ROB_Stalls_Percent_4_Bucket_4: 12560
Non-critical_ROB_Stalls_Percent_4_Bucket_4: 171392
Critical_ROB_Stalls_Percent_4_Bucket_5: 13140
Non-critical_ROB_Stalls_Percent_4_Bucket_5: 148277
Critical_ROB_Stalls_Percent_4_Bucket_6: 203059
Non-critical_ROB_Stalls_Percent_4_Bucket_6: 853458
Critical_ROB_Stalls_Percent_5_Bucket_0: 84
Non-critical_ROB_Stalls_Percent_5_Bucket_0: 469082
Critical_ROB_Stalls_Percent_5_Bucket_1: 3144
Non-critical_ROB_Stalls_Percent_5_Bucket_1: 591006
Critical_ROB_Stalls_Percent_5_Bucket_2: 9813
Non-critical_ROB_Stalls_Percent_5_Bucket_2: 460962
Critical_ROB_Stalls_Percent_5_Bucket_3: 17492
Non-critical_ROB_Stalls_Percent_5_Bucket_3: 299922
Critical_ROB_Stalls_Percent_5_Bucket_4: 12560
Non-critical_ROB_Stalls_Percent_5_Bucket_4: 171392
Critical_ROB_Stalls_Percent_5_Bucket_5: 13140
Non-critical_ROB_Stalls_Percent_5_Bucket_5: 148277
Critical_ROB_Stalls_Percent_5_Bucket_6: 203059
Non-critical_ROB_Stalls_Percent_5_Bucket_6: 853458
Critical_ROB_Stalls_Percent_6_Bucket_0: 84
Non-critical_ROB_Stalls_Percent_6_Bucket_0: 469082
Critical_ROB_Stalls_Percent_6_Bucket_1: 3144
Non-critical_ROB_Stalls_Percent_6_Bucket_1: 591006
Critical_ROB_Stalls_Percent_6_Bucket_2: 9813
Non-critical_ROB_Stalls_Percent_6_Bucket_2: 460962
Critical_ROB_Stalls_Percent_6_Bucket_3: 17492
Non-critical_ROB_Stalls_Percent_6_Bucket_3: 299922
Critical_ROB_Stalls_Percent_6_Bucket_4: 12560
Non-critical_ROB_Stalls_Percent_6_Bucket_4: 171392
Critical_ROB_Stalls_Percent_6_Bucket_5: 13140
Non-critical_ROB_Stalls_Percent_6_Bucket_5: 148277
Critical_ROB_Stalls_Percent_6_Bucket_6: 203059
Non-critical_ROB_Stalls_Percent_6_Bucket_6: 853458
Critical_ROB_Stalls_Percent_7_Bucket_0: 84
Non-critical_ROB_Stalls_Percent_7_Bucket_0: 469082
Critical_ROB_Stalls_Percent_7_Bucket_1: 3144
Non-critical_ROB_Stalls_Percent_7_Bucket_1: 591006
Critical_ROB_Stalls_Percent_7_Bucket_2: 9813
Non-critical_ROB_Stalls_Percent_7_Bucket_2: 460962
Critical_ROB_Stalls_Percent_7_Bucket_3: 17492
Non-critical_ROB_Stalls_Percent_7_Bucket_3: 299922
Critical_ROB_Stalls_Percent_7_Bucket_4: 12560
Non-critical_ROB_Stalls_Percent_7_Bucket_4: 171392
Critical_ROB_Stalls_Percent_7_Bucket_5: 13140
Non-critical_ROB_Stalls_Percent_7_Bucket_5: 148277
Critical_ROB_Stalls_Percent_7_Bucket_6: 203059
Non-critical_ROB_Stalls_Percent_7_Bucket_6: 853458
Critical_ROB_Stalls_Percent_8_Bucket_0: 84
Non-critical_ROB_Stalls_Percent_8_Bucket_0: 469082
Critical_ROB_Stalls_Percent_8_Bucket_1: 3144
Non-critical_ROB_Stalls_Percent_8_Bucket_1: 591006
Critical_ROB_Stalls_Percent_8_Bucket_2: 9813
Non-critical_ROB_Stalls_Percent_8_Bucket_2: 460962
Critical_ROB_Stalls_Percent_8_Bucket_3: 17492
Non-critical_ROB_Stalls_Percent_8_Bucket_3: 299922
Critical_ROB_Stalls_Percent_8_Bucket_4: 12560
Non-critical_ROB_Stalls_Percent_8_Bucket_4: 171392
Critical_ROB_Stalls_Percent_8_Bucket_5: 13140
Non-critical_ROB_Stalls_Percent_8_Bucket_5: 148277
Critical_ROB_Stalls_Percent_8_Bucket_6: 203059
Non-critical_ROB_Stalls_Percent_8_Bucket_6: 853458
Average ROB occupancy Load Stall Begin: 183.311
Average ROB occupancy Load Stall End: 192.325
Min ROB occupancy Load Stall Begin: 1
Max ROB occupancy Load Stall Begin: 352
Min ROB occupancy Load Stall End: 1
Max ROB occupancy Load Stall End: 352
Average ROB occupancy Critical Load Stall Begin: 195.149
Average ROB occupancy Critical Load Stall End: 199.951
Min ROB occupancy Critical Load Stall Begin: 2
Max ROB occupancy Critical Load Stall Begin: 352
Min ROB occupancy Critical Load Stall End: 2
Max ROB occupancy Critical Load Stall End: 352
 ROB Load Stall Begin Bucket Count 0: 665757
 ROB Load Stall End Bucket Count 0: 469166
 ROB Critical Load Stall Begin Bucket Count 0: 7292
 ROB Critical Load Stall End Bucket Count 0: 6479
 ROB Load Stall Begin Bucket Count 1: 542223
 ROB Load Stall End Bucket Count 1: 594150
 ROB Critical Load Stall Begin Bucket Count 1: 5938
 ROB Critical Load Stall End Bucket Count 1: 6010
 ROB Load Stall Begin Bucket Count 2: 427294
 ROB Load Stall End Bucket Count 2: 470775
 ROB Critical Load Stall Begin Bucket Count 2: 7953
 ROB Critical Load Stall End Bucket Count 2: 8021
 ROB Load Stall Begin Bucket Count 3: 265368
 ROB Load Stall End Bucket Count 3: 317414
 ROB Critical Load Stall Begin Bucket Count 3: 7296
 ROB Critical Load Stall End Bucket Count 3: 7392
 ROB Load Stall Begin Bucket Count 4: 169687
 ROB Load Stall End Bucket Count 4: 183952
 ROB Critical Load Stall Begin Bucket Count 4: 6409
 ROB Critical Load Stall End Bucket Count 4: 6324
 ROB Load Stall Begin Bucket Count 5: 157564
 ROB Load Stall End Bucket Count 5: 161417
 ROB Critical Load Stall Begin Bucket Count 5: 6212
 ROB Critical Load Stall End Bucket Count 5: 6320
 ROB Load Stall Begin Bucket Count 6: 1025498
 ROB Load Stall End Bucket Count 6: 1056517
 ROB Critical Load Stall Begin Bucket Count 6: 13816
 ROB Critical Load Stall End Bucket Count 6: 14370
PIST Tag Read Accesses: 0
PIST Read Accesses: 0
PIST Tag Write Accesses: 0
PIST Write Accesses: 0
Criticality detector called times: 0
Max global_stall_cycles_count: 0
Threshold Modified: 0 times, factor: 0
Sturdy critical IP cache stats: 
 Unused entries: 0
CIC Tag Read Accesses: 0
CIC Read Accesses: 0
CIC Tag Write Accesses: 0
CIC Write Accesses: 0
Wobbly critical IP cache stats: 
 Unused entries: 0
CIC Tag Read Accesses: 154348378
CIC Read Accesses: 0
CIC Tag Write Accesses: 253436
CIC Write Accesses: 0
ITLB TOTAL     ACCESS:   10107195  HIT:    9666990  MISS:     440205  HIT %:    95.6446  MISS %:    4.35536   MPKI: 8.8041
ITLB LOAD TRANSLATION ACCESS:    8380953  HIT:    8369327  MISS:      11626  HIT %:    99.8613  MISS %:   0.138719   MPKI: 0.23252
ITLB TRANSLATION FROM L1D PREFETCHER ACCESS:    1726242  HIT:    1297663  MISS:     428579  HIT %:    75.1727  MISS %:    24.8273   MPKI: 8.57158
ITLB PREFETCH  REQUESTED:          0  ISSUED:          0  USEFUL:     376489  USELESS:      52087
ITLB USEFUL LOAD PREFETCHES:     376489 PREFETCH ISSUED TO LOWER LEVEL:          0  ACCURACY: inf
ITLB TIMELY PREFETCHES:     376489 LATE PREFETCHES: 345 DROPPED PREFETCHES: 90
ITLB PREFETCHES SAME FILL-ORIGIN LEVEL: 0 DIFFERENT FILL-ORIGIN LEVEL: 0
ITLB AVERAGE MISS LATENCY: 65498 cycles
ITLB RQ	ACCESS:   14267412	FORWARD:          0	MERGED:    4114288	TO_CACHE:   10153124

DTLB TOTAL     ACCESS:   10627651  HIT:   10187601  MISS:     440050  HIT %:    95.8594  MISS %:    4.14061   MPKI: 8.801
DTLB LOAD TRANSLATION ACCESS:   10627651  HIT:   10187601  MISS:     440050  HIT %:    95.8594  MISS %:    4.14061   MPKI: 8.801
DTLB PREFETCH  REQUESTED:          0  ISSUED:          0  USEFUL:          0  USELESS:          0
DTLB USEFUL LOAD PREFETCHES:          0 PREFETCH ISSUED TO LOWER LEVEL:          0  ACCURACY: -nan
DTLB TIMELY PREFETCHES:          0 LATE PREFETCHES: 0 DROPPED PREFETCHES: 0
DTLB PREFETCHES SAME FILL-ORIGIN LEVEL: 0 DIFFERENT FILL-ORIGIN LEVEL: 0
DTLB AVERAGE MISS LATENCY: 24.4632 cycles
DTLB RQ	ACCESS:   15436609	FORWARD:          0	MERGED:    4734107	TO_CACHE:   10702502

STLB TOTAL     ACCESS:     930782  HIT:     867393  MISS:      63389  HIT %:    93.1897  MISS %:    6.81029   MPKI: 1.26778
STLB LOAD TRANSLATION ACCESS:     451331  HIT:     388895  MISS:      62436  HIT %:    86.1663  MISS %:    13.8337   MPKI: 1.24872
STLB TRANSLATION FROM L1D PREFETCHER ACCESS:     479451  HIT:     478498  MISS:        953  HIT %:    99.8012  MISS %:   0.198769   MPKI: 0.01906
STLB PREFETCH  REQUESTED:          0  ISSUED:          0  USEFUL:        721  USELESS:        233
STLB USEFUL LOAD PREFETCHES:        721 PREFETCH ISSUED TO LOWER LEVEL:          0  ACCURACY: inf
STLB TIMELY PREFETCHES:        721 LATE PREFETCHES: 0 DROPPED PREFETCHES: 90
STLB PREFETCHES SAME FILL-ORIGIN LEVEL: 0 DIFFERENT FILL-ORIGIN LEVEL: 0
STLB AVERAGE MISS LATENCY: 112.144 cycles
STLB RQ	ACCESS:     933172	FORWARD:          0	MERGED:       2300	TO_CACHE:     930872

STLB Hit, L1D data hit: 0
STLB Hit, L2C data hit: 0
STLB Hit, LLC data hit: 0
STLB Hit, LLC data miss: 0
STLB STLB hints to L2: 0
L1D TOTAL     ACCESS:   13636085  HIT:   11896979  MISS:    1739106  HIT %:    87.2463  MISS %:    12.7537   MPKI: 34.7821
L1D LOAD      ACCESS:    7323015  HIT:    6464723  MISS:     858292  HIT %:    88.2795  MISS %:    11.7205   MPKI: 17.1658
L1D RFO       ACCESS:    6263513  HIT:    5390956  MISS:     872557  HIT %:    86.0692  MISS %:    13.9308   MPKI: 17.4511
L1D PREFETCH  ACCESS:      49557  HIT:      41300  MISS:       8257  HIT %:    83.3384  MISS %:    16.6616   MPKI: 0.16514
L1D PREFETCH  REQUESTED:     105654  ISSUED:     105654  USEFUL:       7236  USELESS:       1022
L1D USEFUL LOAD PREFETCHES:       7236 PREFETCH ISSUED TO LOWER LEVEL:      10576  ACCURACY: 68.4191
L1D TIMELY PREFETCHES:       7236 LATE PREFETCHES: 2317 DROPPED PREFETCHES: 0
L1D PREFETCHES SAME FILL-ORIGIN LEVEL: 10576 DIFFERENT FILL-ORIGIN LEVEL: 0
L1D AVERAGE MISS LATENCY: 210991 cycles
L1D RQ	ACCESS:   10780217	FORWARD:          0	MERGED:    3311799	TO_CACHE:    7359399
L1D WQ	ACCESS:    8175288	FORWARD:     109019	MERGED:      98078	TO_CACHE:    8077210
L1D PQ	ACCESS:      52827	FORWARD:          0	MERGED:          0	TO_CACHE:      52827

L1D UNIQUE REGIONS ACCESSED: 0
L1D REGIONS CONFLICTS: 0
L1D Cross Page Prefetch Requests: 0
L1D Same Page Prefetch Requests: 261428
L1D ROI Sum of L1D PQ occupancy: 854257
L1D PREFETCHES PUSHED FROM L2C: 0
L1I TOTAL     ACCESS:   14197737  HIT:   11349490  MISS:    2848247  HIT %:    79.9387  MISS %:    20.0613   MPKI: 56.9649
L1I LOAD      ACCESS:    9758956  HIT:    9737027  MISS:      21929  HIT %:    99.7753  MISS %:   0.224706   MPKI: 0.43858
L1I PREFETCH  ACCESS:    4438781  HIT:    1612463  MISS:    2826318  HIT %:    36.3267  MISS %:    63.6733   MPKI: 56.5264
L1I PREFETCH  REQUESTED:    4645660  ISSUED:    4640936  USEFUL:    2341822  USELESS:     484484
L1I USEFUL LOAD PREFETCHES:    2341822 PREFETCH ISSUED TO LOWER LEVEL:    2835462  ACCURACY: 82.5905
L1I TIMELY PREFETCHES:    2341822 LATE PREFETCHES: 9144 DROPPED PREFETCHES: 155
L1I PREFETCHES SAME FILL-ORIGIN LEVEL: 2835462 DIFFERENT FILL-ORIGIN LEVEL: 0
L1I AVERAGE MISS LATENCY: 340699 cycles
L1I RQ	ACCESS:   14068538	FORWARD:          0	MERGED:    4304447	TO_CACHE:    9764091
L1I PQ	ACCESS:    4640936	FORWARD:          0	MERGED:     137615	TO_CACHE:    4503321

BTB TOTAL     ACCESS:    5420737  HIT:    5179354  MISS:     241383  HIT %:     95.547  MISS %:    4.45296   MPKI: 4.82766
BTB BRANCH_DIRECT_JUMP	ACCESS:     464500  HIT:     462787  MISS:       1713
BTB BRANCH_INDIRECT	ACCESS:      45704  HIT:      45540  MISS:        164
BTB BRANCH_CONDITIONAL	ACCESS:    3156565  HIT:    3151071  MISS:       5494
BTB BRANCH_DIRECT_CALL	ACCESS:     675450  HIT:     671839  MISS:       3611
BTB BRANCH_INDIRECT_CALL	ACCESS:     201532  HIT:     175397  MISS:      26135
BTB BRANCH_RETURN	ACCESS:     876986  HIT:     672720  MISS:     204266
BTB BRANCH_OTHER ACCESS:          0  HIT:          0  MISS:          0

L2C TOTAL     ACCESS:    5786771  HIT:    4048862  MISS:    1737909  HIT %:    69.9676  MISS %:    30.0324   MPKI: 34.7582
L2C LOAD      ACCESS:     868749  HIT:     181648  MISS:     687101  HIT %:    20.9091  MISS %:    79.0909   MPKI: 13.742
L2C DATA LOAD MPKI: 13.6304
L2C INSTRUCTION LOAD MPKI: 0.11166
L2C RFO       ACCESS:     872552  HIT:      35584  MISS:     836968  HIT %:    4.07815  MISS %:    95.9218   MPKI: 16.7394
L2C PREFETCH  ACCESS:    2846038  HIT:    2707103  MISS:     138935  HIT %:    95.1183  MISS %:     4.8817   MPKI: 2.7787
L2C DATA PREFETCH MPKI: 0.09644
L2C INSTRUCTION PREFETCH MPKI: 2.68226
L2C WRITEBACK ACCESS:    1110611  HIT:    1066488  MISS:      44123  HIT %:    96.0271  MISS %:    3.97286   MPKI: 0.88246
L2C LOAD TRANSLATION ACCESS:      87262  HIT:      57437  MISS:      29825  HIT %:    65.8213  MISS %:    34.1787   MPKI: 0.5965
L2C TRANSLATION FROM L1D PREFETCHER ACCESS:       1559  HIT:        602  MISS:        957  HIT %:    38.6145  MISS %:    61.3855   MPKI: 0.01914
L2C PREFETCH  REQUESTED:          0  ISSUED:          0  USEFUL:       2264  USELESS:     138471
L2C USEFUL LOAD PREFETCHES:       2264 PREFETCH ISSUED TO LOWER LEVEL:     138935  ACCURACY: 1.62954
L2C TIMELY PREFETCHES:       2264 LATE PREFETCHES: 0 DROPPED PREFETCHES: 0
L2C PREFETCHES SAME FILL-ORIGIN LEVEL: 0 DIFFERENT FILL-ORIGIN LEVEL: 0
L2C AVERAGE MISS LATENCY: 163.691 cycles
L2C RQ	ACCESS:    1830137	FORWARD:          0	MERGED:          0	TO_CACHE:    1830123
L2C WQ	ACCESS:    1110611	FORWARD:         14	MERGED:          0	TO_CACHE:    1110611
L2C PQ	ACCESS:    2846038	FORWARD:          0	MERGED:          0	TO_CACHE:    2846038

L2C Instructions Evicting Data 125875
L2C Translations Evicting Data 27521
L2C Data Evicting Data 1373237
L2C Instructions Evicting Instructions 10997
L2C Translations Evicting Instructions 2811
L2C Data Evicting Instructions 123211
L2C Instructions Evicting Translations 2824
L2C Translations Evicting Translations 450
L2C Data Evicting Translations 26860
L2C Dense regions hint from L2: 0
PSCL5 TOTAL     ACCESS:      63479  HIT:      63479  MISS:          0  HIT %:        100  MISS %:          0   MPKI: 0
PSCL5 LOAD TRANSLATION ACCESS:      62436  HIT:      62436  MISS:          0  HIT %:        100  MISS %:          0   MPKI: 0
PSCL5 TRANSLATION FROM L1D PREFETCHER ACCESS:       1043  HIT:       1043  MISS:          0  HIT %:        100  MISS %:          0   MPKI: 0
PSCL5 PREFETCH  REQUESTED:          0  ISSUED:          0  USEFUL:          0  USELESS:          0
PSCL5 USEFUL LOAD PREFETCHES:          0 PREFETCH ISSUED TO LOWER LEVEL:          0  ACCURACY: -nan
PSCL5 TIMELY PREFETCHES:          0 LATE PREFETCHES: 0 DROPPED PREFETCHES: 0
PSCL5 PREFETCHES SAME FILL-ORIGIN LEVEL: 0 DIFFERENT FILL-ORIGIN LEVEL: 0

PSCL4 TOTAL     ACCESS:      36049  HIT:      35930  MISS:        119  HIT %:    99.6699  MISS %:   0.330106   MPKI: 0.00238
PSCL4 LOAD TRANSLATION ACCESS:      35176  HIT:      35057  MISS:        119  HIT %:    99.6617  MISS %:   0.338299   MPKI: 0.00238
PSCL4 TRANSLATION FROM L1D PREFETCHER ACCESS:        873  HIT:        873  MISS:          0  HIT %:        100  MISS %:          0   MPKI: 0
PSCL4 PREFETCH  REQUESTED:          0  ISSUED:          0  USEFUL:          0  USELESS:          0
PSCL4 USEFUL LOAD PREFETCHES:          0 PREFETCH ISSUED TO LOWER LEVEL:          0  ACCURACY: -nan
PSCL4 TIMELY PREFETCHES:          0 LATE PREFETCHES: 0 DROPPED PREFETCHES: 0
PSCL4 PREFETCHES SAME FILL-ORIGIN LEVEL: 0 DIFFERENT FILL-ORIGIN LEVEL: 0

PSCL3 TOTAL     ACCESS:      63186  HIT:      62697  MISS:        489  HIT %:    99.2261  MISS %:   0.773906   MPKI: 0.00978
PSCL3 LOAD TRANSLATION ACCESS:      62277  HIT:      61788  MISS:        489  HIT %:    99.2148  MISS %:   0.785202   MPKI: 0.00978
PSCL3 TRANSLATION FROM L1D PREFETCHER ACCESS:        909  HIT:        909  MISS:          0  HIT %:        100  MISS %:          0   MPKI: 0
PSCL3 PREFETCH  REQUESTED:          0  ISSUED:          0  USEFUL:          0  USELESS:          0
PSCL3 USEFUL LOAD PREFETCHES:          0 PREFETCH ISSUED TO LOWER LEVEL:          0  ACCURACY: -nan
PSCL3 TIMELY PREFETCHES:          0 LATE PREFETCHES: 0 DROPPED PREFETCHES: 0
PSCL3 PREFETCHES SAME FILL-ORIGIN LEVEL: 0 DIFFERENT FILL-ORIGIN LEVEL: 0

PSCL2 TOTAL     ACCESS:      63399  HIT:      38706  MISS:      24693  HIT %:    61.0514  MISS %:    38.9486   MPKI: 0.49386
PSCL2 LOAD TRANSLATION ACCESS:      62748  HIT:      38055  MISS:      24693  HIT %:    60.6474  MISS %:    39.3526   MPKI: 0.49386
PSCL2 TRANSLATION FROM L1D PREFETCHER ACCESS:        651  HIT:        651  MISS:          0  HIT %:        100  MISS %:          0   MPKI: 0
PSCL2 PREFETCH  REQUESTED:          0  ISSUED:          0  USEFUL:          0  USELESS:          0
PSCL2 USEFUL LOAD PREFETCHES:          0 PREFETCH ISSUED TO LOWER LEVEL:          0  ACCURACY: -nan
PSCL2 TIMELY PREFETCHES:          0 LATE PREFETCHES: 0 DROPPED PREFETCHES: 0
PSCL2 PREFETCHES SAME FILL-ORIGIN LEVEL: 0 DIFFERENT FILL-ORIGIN LEVEL: 0

LLC TOTAL     ACCESS:    2730504  HIT:     949208  MISS:    1781296  HIT %:    34.7631  MISS %:    65.2369   MPKI: 35.6259
LLC LOAD      ACCESS:     687101  HIT:     248641  MISS:     438460  HIT %:     36.187  MISS %:     63.813   MPKI: 8.7692
LLC RFO       ACCESS:     836968  HIT:     219126  MISS:     617842  HIT %:    26.1809  MISS %:    73.8191   MPKI: 12.3568
LLC PREFETCH  ACCESS:     138935  HIT:     111102  MISS:      27833  HIT %:    79.9669  MISS %:    20.0331   MPKI: 0.55666
LLC WRITEBACK ACCESS:    1036718  HIT:     357178  MISS:     679540  HIT %:    34.4528  MISS %:    65.5472   MPKI: 13.5908
LLC LOAD TRANSLATION ACCESS:      29825  HIT:      12824  MISS:      17001  HIT %:    42.9975  MISS %:    57.0025   MPKI: 0.34002
LLC TRANSLATION FROM L1D PREFETCHER ACCESS:        957  HIT:        337  MISS:        620  HIT %:    35.2142  MISS %:    64.7858   MPKI: 0.0124
LLC PREFETCH  REQUESTED:          0  ISSUED:          0  USEFUL:        148  USELESS:      28222
LLC USEFUL LOAD PREFETCHES:        148 PREFETCH ISSUED TO LOWER LEVEL:      27833  ACCURACY: 0.531743
LLC TIMELY PREFETCHES:        148 LATE PREFETCHES: 0 DROPPED PREFETCHES: 0
LLC PREFETCHES SAME FILL-ORIGIN LEVEL: 0 DIFFERENT FILL-ORIGIN LEVEL: 0
LLC AVERAGE MISS LATENCY: 129.899 cycles
LLC RQ	ACCESS:    1554852	FORWARD:          0	MERGED:          0	TO_CACHE:    1554852
LLC WQ	ACCESS:    1036718	FORWARD:          0	MERGED:          0	TO_CACHE:    1036718
LLC PQ	ACCESS:     138935	FORWARD:          0	MERGED:          0	TO_CACHE:     138935

LLC Dense regions hint to LLC: 0

RAW hits: 1308384
Loads Generated: 12088598
Loads sent to L1D: 10780217
Stores Generated: 8175295
Stores sent to L1D: 8175288
Major fault: 0 Minor fault: 24906
Allocated PAGES: 24906
I-Shadow cache 408 bytes
Touched + WorthPF tables 6144 bytes 
MMA filter 174 bytes 
FNL filter 272 bytes 
TOTAL PREFETCHER STORAGE SIZE: 25174 bytes
CPU 0 L1I next line prefetcher final stats

stream: 
stream:times selected: 302758
stream:pref_filled: 54335
stream:pref_useful: 24115
stream:pref_late: 17927
stream:misses: 4347
stream:misses_by_poll: 0

CS: 
CS:times selected: 125001
CS:pref_filled: 48502
CS:pref_useful: 46621
CS:pref_late: 1481
CS:misses: 1314
CS:misses_by_poll: 21

CPLX: 
CPLX:times selected: 174834
CPLX:pref_filled: 10061
CPLX:pref_useful: 3243
CPLX:pref_late: 312
CPLX:misses: 16781
CPLX:misses_by_poll: 0

NL_L1: 
NL:times selected: 406
NL:pref_filled: 147
NL:pref_useful: 54
NL:pref_late: 23
NL:misses: 84
NL:misses_by_poll: 0

total selections: 602999
total_filled: 8257
total_useful: 7236
total_late: 20765
total_polluted: 21
total_misses_after_warmup: 453
conflicts: 33
Degree Incremented Times: 7849
Degree Decremented Times: 18757

L1 IP Table Write Accesses: 132206
L1 IP Table Read Accesses: 132173
L1 RST Write Accesses: 52548
L1 RST Read Accesses: 105096
L1 CSPT Write Accesses: 52548
L1 CSPT Read Accesses: 53363
L1 RR Filter Tag Write Accesses: 52827
L1 RR Filter Tag Read Accesses: 6445795
L1 IP Table Tag Write Accesses: 132237
L1 IP Table Tag Read Accesses: 132237
L1 RST Tag Write Accesses: 0
L1 RST Tag Read Accesses: 484956
L1 RR Filter Write Accesses: 0
L1 RR Filter Read Accesses: 204700
test: 59574

DRAM Statistics
 CHANNEL 0
 RQ ROW_BUFFER_HIT:     451269  ROW_BUFFER_MISS:     650481
 DBUS_CONGESTED:        559
 WQ ROW_BUFFER_HIT:     300894  ROW_BUFFER_MISS:     413608  FULL:      13436

 AVG_CONGESTED_CYCLE: 3
 All warmup complete: 2
Channel 0 Bank busy for read cycles: 0
Channel 0 Bank busy for write cycles: 0
Channel 0
Rank 0
0banks busy for read cycles: 36643835
0banks busy for write cycles: 100967
1banks busy for read cycles: 48049245
1banks busy for write cycles: 21482569
2banks busy for read cycles: 10670653
2banks busy for write cycles: 10996144
3banks busy for read cycles: 1504871
3banks busy for write cycles: 5131728
4banks busy for read cycles: 1438493
4banks busy for write cycles: 2459548
5banks busy for read cycles: 407535
5banks busy for write cycles: 1308104
6banks busy for read cycles: 485702
6banks busy for write cycles: 912953
7banks busy for read cycles: 818638
7banks busy for write cycles: 1167159
8banks busy for read cycles: 3893899
8banks busy for write cycles: 6198960

CPU 0 Branch Prediction Accuracy: 99.2833% MPKI: 1.20566 Average ROB Occupancy at Mispredict: 138.217
Branch types
NOT_BRANCH: 41588317 83.1766%
BRANCH_DIRECT_JUMP: 464500 0.929%
BRANCH_INDIRECT: 45704 0.091408%
BRANCH_CONDITIONAL: 6147405 12.2948%
BRANCH_DIRECT_CALL: 675450 1.3509%
BRANCH_INDIRECT_CALL: 201532 0.403064%
BRANCH_RETURN: 876986 1.75397%
BRANCH_OTHER: 0 0%

DRAM PAGES: 1048576
Allocated PAGES: 24906
