
*** ChampSim Multicore Out-of-Order Simulator ***

Warmup Instructions: 50000000
Simulation Instructions: 50000000
Number of CPUs: 1
LLC sets: 2048
LLC ways: 16
Off-chip DRAM Size: 4096 MB Channels: 1 Width: 64-bit Data Rate: 6400 MT/s
CPU 0 runs ../IPC-traces//server_012.champsimtrace.xz
.xz
BTB has LRU replacement policy
ITLB has LRU replacement policy
DTLB has LRU replacement policy
STLB has LRU replacement policy
CPU 0 L1I next line prefetcher
L1I has LRU replacement policy
IP Table Entries: 64
L1D has LRU replacement policy
Initialize SRRIP state for L2C
Initialize DRRIP state for LLC
Heartbeat CPU 0 instructions: 10000002 cycles: 2766784 heartbeat IPC: 3.61431 cumulative IPC: 3.61431 (Simulation time: 0 hr 4 min 13 sec) 
Heartbeat CPU 0 instructions: 20000002 cycles: 5528467 heartbeat IPC: 3.62098 cumulative IPC: 3.61764 (Simulation time: 0 hr 7 min 35 sec) 
Heartbeat CPU 0 instructions: 30000003 cycles: 8287654 heartbeat IPC: 3.62426 cumulative IPC: 3.61984 (Simulation time: 0 hr 10 min 56 sec) 
Heartbeat CPU 0 instructions: 40000000 cycles: 11050035 heartbeat IPC: 3.62006 cumulative IPC: 3.6199 (Simulation time: 0 hr 14 min 18 sec) 
Heartbeat CPU 0 instructions: 50000003 cycles: 13811583 heartbeat IPC: 3.62116 cumulative IPC: 3.62015 (Simulation time: 0 hr 17 min 31 sec) 

Warmup complete CPU 0 instructions: 50000003 cycles: 13811583 (Simulation time: 0 hr 17 min 31 sec) 

Heartbeat CPU 0 instructions: 60000000 cycles: 27886465 heartbeat IPC: 0.710485 cumulative IPC: 0.710485 (Simulation time: 0 hr 21 min 1 sec) 
Heartbeat CPU 0 instructions: 70000000 cycles: 41896731 heartbeat IPC: 0.713762 cumulative IPC: 0.71212 (Simulation time: 0 hr 24 min 17 sec) 
Heartbeat CPU 0 instructions: 80000003 cycles: 56092004 heartbeat IPC: 0.70446 cumulative IPC: 0.709548 (Simulation time: 0 hr 27 min 34 sec) 
Heartbeat CPU 0 instructions: 90000001 cycles: 70411467 heartbeat IPC: 0.69835 cumulative IPC: 0.706715 (Simulation time: 0 hr 30 min 54 sec) 
Heartbeat CPU 0 instructions: 100000002 cycles: 84586989 heartbeat IPC: 0.705441 cumulative IPC: 0.70646 (Simulation time: 0 hr 34 min 15 sec) 
Finished CPU 0 instructions: 50000001 cycles: 70775408 cumulative IPC: 0.70646 (Simulation time: 0 hr 34 min 15 sec) 

ChampSim completed all CPUs

Region of Interest Statistics

CPU 0 cumulative IPC: 0.70646 instructions: 50000001 cycles: 70775408

CPU 0 Average Load ROB stall cycles: 1.89156e+07
CPU 0 Fraction of times ROB stalled by Loads: 38.52
CPU 0 Percentage of Load stall cycles in Total stall cycles: 2.1942e+08
Issued all: 27475518
Issued LT all: 21340460
rob_not_full_when_issued_lt_all: 20263419
Issued LT one: 16966162
rob_not_full_when_issued_lt_one: 16042309
 Total stall cycles: 57599106
 Total load stall cycles: 126383828429258
Unique Load IPs: 30734
CPU 0 NUM of IPS identified critical: 80
CPU 0 Num of Load IPs stalling ROB: 0
Threshold modification factor: 0
Trouble in retire width: -nan
MaC = Marked as critical.
lt_50_percent_before_Mac: 20
gt_90_percent_before_Mac: 7
gt_75_percent_before_Mac: 8
gt_50_percent_before_Mac: 30
stall_proportion_bin_same_before_after: 0
stall_proportion_bin_lower_before_after: 0
stall_proportion_bin_upper_before_after: 0
average_stall_proportion_before: 0.0381149
average_stall_proportion_after: 0.0390387
Critical_IP_Detector_Accuracy_70: 0
Critical_IP_Detector_Accuracy_80: 0
Critical_IP_Detector_Accuracy_90: 0
Critical_IP_Detector_Coverage_70: 0
Critical_IP_Detector_Coverage_80: 0
Critical_IP_Detector_Coverage_90: 0
stat_90_percent_critical_ip_stalls_freq: 34021
stat_90_percent_non_critical_ip_stalls_freq: 18446744073709517595
AVERAGE_ROB_Occupancy_90_Percent_Critical_IP_Stalls: 47.2878
AVERAGE_ROB_Occupancy_90_Percent_Non_Critical_IP_Stalls: 9.66851e-12
Critical_IP_ROB_Stalls_Bucket_0: 13965
Non-critical_IP_ROB_Stalls_Bucket_0: 1289942
Critical_IP_ROB_Stalls_Bucket_1: 3594
Non-critical_IP_ROB_Stalls_Bucket_1: 750290
Critical_IP_ROB_Stalls_Bucket_2: 1173
Non-critical_IP_ROB_Stalls_Bucket_2: 278749
Critical_IP_ROB_Stalls_Bucket_3: 688
Non-critical_IP_ROB_Stalls_Bucket_3: 94062
Critical_IP_ROB_Stalls_Bucket_4: 288
Non-critical_IP_ROB_Stalls_Bucket_4: 52681
Critical_IP_ROB_Stalls_Bucket_5: 124
Non-critical_IP_ROB_Stalls_Bucket_5: 30663
Critical_IP_ROB_Stalls_Bucket_6: 120
Non-critical_IP_ROB_Stalls_Bucket_6: 57361
0 => IPs accounting for >50 percent of stalls, 1 => 55, 2 => 60, 3 => 65 and so on till 90.
percent50: inf num IPs:  1
percent55: inf num IPs: 1
percent60: inf num IPs: 1
percent65: inf num IPs: 1
percent70: inf num IPs: 1
percent75: inf num IPs: 1
percent80: inf num IPs: 1
percent85: inf num IPs: 1
percent90: inf num IPs: 1
Critical_ROB_Stalls_Percent_0_Bucket_0: 28049
Non-critical_ROB_Stalls_Percent_0_Bucket_0: 1275858
Critical_ROB_Stalls_Percent_0_Bucket_1: 5890
Non-critical_ROB_Stalls_Percent_0_Bucket_1: 747994
Critical_ROB_Stalls_Percent_0_Bucket_2: 54
Non-critical_ROB_Stalls_Percent_0_Bucket_2: 279868
Critical_ROB_Stalls_Percent_0_Bucket_3: 13
Non-critical_ROB_Stalls_Percent_0_Bucket_3: 94737
Critical_ROB_Stalls_Percent_0_Bucket_4: 15
Non-critical_ROB_Stalls_Percent_0_Bucket_4: 52954
Critical_ROB_Stalls_Percent_0_Bucket_5: 0
Non-critical_ROB_Stalls_Percent_0_Bucket_5: 30787
Critical_ROB_Stalls_Percent_0_Bucket_6: 0
Non-critical_ROB_Stalls_Percent_0_Bucket_6: 57481
Critical_ROB_Stalls_Percent_1_Bucket_0: 28049
Non-critical_ROB_Stalls_Percent_1_Bucket_0: 1275858
Critical_ROB_Stalls_Percent_1_Bucket_1: 5890
Non-critical_ROB_Stalls_Percent_1_Bucket_1: 747994
Critical_ROB_Stalls_Percent_1_Bucket_2: 54
Non-critical_ROB_Stalls_Percent_1_Bucket_2: 279868
Critical_ROB_Stalls_Percent_1_Bucket_3: 13
Non-critical_ROB_Stalls_Percent_1_Bucket_3: 94737
Critical_ROB_Stalls_Percent_1_Bucket_4: 15
Non-critical_ROB_Stalls_Percent_1_Bucket_4: 52954
Critical_ROB_Stalls_Percent_1_Bucket_5: 0
Non-critical_ROB_Stalls_Percent_1_Bucket_5: 30787
Critical_ROB_Stalls_Percent_1_Bucket_6: 0
Non-critical_ROB_Stalls_Percent_1_Bucket_6: 57481
Critical_ROB_Stalls_Percent_2_Bucket_0: 28049
Non-critical_ROB_Stalls_Percent_2_Bucket_0: 1275858
Critical_ROB_Stalls_Percent_2_Bucket_1: 5890
Non-critical_ROB_Stalls_Percent_2_Bucket_1: 747994
Critical_ROB_Stalls_Percent_2_Bucket_2: 54
Non-critical_ROB_Stalls_Percent_2_Bucket_2: 279868
Critical_ROB_Stalls_Percent_2_Bucket_3: 13
Non-critical_ROB_Stalls_Percent_2_Bucket_3: 94737
Critical_ROB_Stalls_Percent_2_Bucket_4: 15
Non-critical_ROB_Stalls_Percent_2_Bucket_4: 52954
Critical_ROB_Stalls_Percent_2_Bucket_5: 0
Non-critical_ROB_Stalls_Percent_2_Bucket_5: 30787
Critical_ROB_Stalls_Percent_2_Bucket_6: 0
Non-critical_ROB_Stalls_Percent_2_Bucket_6: 57481
Critical_ROB_Stalls_Percent_3_Bucket_0: 28049
Non-critical_ROB_Stalls_Percent_3_Bucket_0: 1275858
Critical_ROB_Stalls_Percent_3_Bucket_1: 5890
Non-critical_ROB_Stalls_Percent_3_Bucket_1: 747994
Critical_ROB_Stalls_Percent_3_Bucket_2: 54
Non-critical_ROB_Stalls_Percent_3_Bucket_2: 279868
Critical_ROB_Stalls_Percent_3_Bucket_3: 13
Non-critical_ROB_Stalls_Percent_3_Bucket_3: 94737
Critical_ROB_Stalls_Percent_3_Bucket_4: 15
Non-critical_ROB_Stalls_Percent_3_Bucket_4: 52954
Critical_ROB_Stalls_Percent_3_Bucket_5: 0
Non-critical_ROB_Stalls_Percent_3_Bucket_5: 30787
Critical_ROB_Stalls_Percent_3_Bucket_6: 0
Non-critical_ROB_Stalls_Percent_3_Bucket_6: 57481
Critical_ROB_Stalls_Percent_4_Bucket_0: 28049
Non-critical_ROB_Stalls_Percent_4_Bucket_0: 1275858
Critical_ROB_Stalls_Percent_4_Bucket_1: 5890
Non-critical_ROB_Stalls_Percent_4_Bucket_1: 747994
Critical_ROB_Stalls_Percent_4_Bucket_2: 54
Non-critical_ROB_Stalls_Percent_4_Bucket_2: 279868
Critical_ROB_Stalls_Percent_4_Bucket_3: 13
Non-critical_ROB_Stalls_Percent_4_Bucket_3: 94737
Critical_ROB_Stalls_Percent_4_Bucket_4: 15
Non-critical_ROB_Stalls_Percent_4_Bucket_4: 52954
Critical_ROB_Stalls_Percent_4_Bucket_5: 0
Non-critical_ROB_Stalls_Percent_4_Bucket_5: 30787
Critical_ROB_Stalls_Percent_4_Bucket_6: 0
Non-critical_ROB_Stalls_Percent_4_Bucket_6: 57481
Critical_ROB_Stalls_Percent_5_Bucket_0: 28049
Non-critical_ROB_Stalls_Percent_5_Bucket_0: 1275858
Critical_ROB_Stalls_Percent_5_Bucket_1: 5890
Non-critical_ROB_Stalls_Percent_5_Bucket_1: 747994
Critical_ROB_Stalls_Percent_5_Bucket_2: 54
Non-critical_ROB_Stalls_Percent_5_Bucket_2: 279868
Critical_ROB_Stalls_Percent_5_Bucket_3: 13
Non-critical_ROB_Stalls_Percent_5_Bucket_3: 94737
Critical_ROB_Stalls_Percent_5_Bucket_4: 15
Non-critical_ROB_Stalls_Percent_5_Bucket_4: 52954
Critical_ROB_Stalls_Percent_5_Bucket_5: 0
Non-critical_ROB_Stalls_Percent_5_Bucket_5: 30787
Critical_ROB_Stalls_Percent_5_Bucket_6: 0
Non-critical_ROB_Stalls_Percent_5_Bucket_6: 57481
Critical_ROB_Stalls_Percent_6_Bucket_0: 28049
Non-critical_ROB_Stalls_Percent_6_Bucket_0: 1275858
Critical_ROB_Stalls_Percent_6_Bucket_1: 5890
Non-critical_ROB_Stalls_Percent_6_Bucket_1: 747994
Critical_ROB_Stalls_Percent_6_Bucket_2: 54
Non-critical_ROB_Stalls_Percent_6_Bucket_2: 279868
Critical_ROB_Stalls_Percent_6_Bucket_3: 13
Non-critical_ROB_Stalls_Percent_6_Bucket_3: 94737
Critical_ROB_Stalls_Percent_6_Bucket_4: 15
Non-critical_ROB_Stalls_Percent_6_Bucket_4: 52954
Critical_ROB_Stalls_Percent_6_Bucket_5: 0
Non-critical_ROB_Stalls_Percent_6_Bucket_5: 30787
Critical_ROB_Stalls_Percent_6_Bucket_6: 0
Non-critical_ROB_Stalls_Percent_6_Bucket_6: 57481
Critical_ROB_Stalls_Percent_7_Bucket_0: 28049
Non-critical_ROB_Stalls_Percent_7_Bucket_0: 1275858
Critical_ROB_Stalls_Percent_7_Bucket_1: 5890
Non-critical_ROB_Stalls_Percent_7_Bucket_1: 747994
Critical_ROB_Stalls_Percent_7_Bucket_2: 54
Non-critical_ROB_Stalls_Percent_7_Bucket_2: 279868
Critical_ROB_Stalls_Percent_7_Bucket_3: 13
Non-critical_ROB_Stalls_Percent_7_Bucket_3: 94737
Critical_ROB_Stalls_Percent_7_Bucket_4: 15
Non-critical_ROB_Stalls_Percent_7_Bucket_4: 52954
Critical_ROB_Stalls_Percent_7_Bucket_5: 0
Non-critical_ROB_Stalls_Percent_7_Bucket_5: 30787
Critical_ROB_Stalls_Percent_7_Bucket_6: 0
Non-critical_ROB_Stalls_Percent_7_Bucket_6: 57481
Critical_ROB_Stalls_Percent_8_Bucket_0: 28049
Non-critical_ROB_Stalls_Percent_8_Bucket_0: 1275858
Critical_ROB_Stalls_Percent_8_Bucket_1: 5890
Non-critical_ROB_Stalls_Percent_8_Bucket_1: 747994
Critical_ROB_Stalls_Percent_8_Bucket_2: 54
Non-critical_ROB_Stalls_Percent_8_Bucket_2: 279868
Critical_ROB_Stalls_Percent_8_Bucket_3: 13
Non-critical_ROB_Stalls_Percent_8_Bucket_3: 94737
Critical_ROB_Stalls_Percent_8_Bucket_4: 15
Non-critical_ROB_Stalls_Percent_8_Bucket_4: 52954
Critical_ROB_Stalls_Percent_8_Bucket_5: 0
Non-critical_ROB_Stalls_Percent_8_Bucket_5: 30787
Critical_ROB_Stalls_Percent_8_Bucket_6: 0
Non-critical_ROB_Stalls_Percent_8_Bucket_6: 57481
Average ROB occupancy Load Stall Begin: 57.9391
Average ROB occupancy Load Stall End: 69.9232
Min ROB occupancy Load Stall Begin: 1
Max ROB occupancy Load Stall Begin: 352
Min ROB occupancy Load Stall End: 1
Max ROB occupancy Load Stall End: 352
Average ROB occupancy Critical Load Stall Begin: 48.3108
Average ROB occupancy Critical Load Stall End: 58.577
Min ROB occupancy Critical Load Stall Begin: 2
Max ROB occupancy Critical Load Stall Begin: 352
Min ROB occupancy Critical Load Stall End: 2
Max ROB occupancy Critical Load Stall End: 352
 ROB Load Stall Begin Bucket Count 0: 1597038
 ROB Load Stall End Bucket Count 0: 1303907
 ROB Critical Load Stall Begin Bucket Count 0: 3948
 ROB Critical Load Stall End Bucket Count 0: 3476
 ROB Load Stall Begin Bucket Count 1: 574097
 ROB Load Stall End Bucket Count 1: 753884
 ROB Critical Load Stall Begin Bucket Count 1: 873
 ROB Critical Load Stall End Bucket Count 1: 1139
 ROB Load Stall Begin Bucket Count 2: 215176
 ROB Load Stall End Bucket Count 2: 279922
 ROB Critical Load Stall Begin Bucket Count 2: 407
 ROB Critical Load Stall End Bucket Count 2: 497
 ROB Load Stall Begin Bucket Count 3: 70228
 ROB Load Stall End Bucket Count 3: 94750
 ROB Critical Load Stall Begin Bucket Count 3: 169
 ROB Critical Load Stall End Bucket Count 3: 251
 ROB Load Stall Begin Bucket Count 4: 42491
 ROB Load Stall End Bucket Count 4: 52969
 ROB Critical Load Stall Begin Bucket Count 4: 59
 ROB Critical Load Stall End Bucket Count 4: 92
 ROB Load Stall Begin Bucket Count 5: 26081
 ROB Load Stall End Bucket Count 5: 30787
 ROB Critical Load Stall Begin Bucket Count 5: 46
 ROB Critical Load Stall End Bucket Count 5: 43
 ROB Load Stall Begin Bucket Count 6: 48590
 ROB Load Stall End Bucket Count 6: 57481
 ROB Critical Load Stall Begin Bucket Count 6: 25
 ROB Critical Load Stall End Bucket Count 6: 37
PIST Tag Read Accesses: 0
PIST Read Accesses: 0
PIST Tag Write Accesses: 0
PIST Write Accesses: 0
Criticality detector called times: 0
Max global_stall_cycles_count: 0
Threshold Modified: 0 times, factor: 0
Sturdy critical IP cache stats: 
 Unused entries: 0
CIC Tag Read Accesses: 0
CIC Read Accesses: 0
CIC Tag Write Accesses: 0
CIC Write Accesses: 0
Wobbly critical IP cache stats: 
 Unused entries: 0
CIC Tag Read Accesses: 125167111
CIC Read Accesses: 0
CIC Tag Write Accesses: 61346
CIC Write Accesses: 0
ITLB TOTAL     ACCESS:    8944133  HIT:    8693707  MISS:     250426  HIT %:    97.2001  MISS %:    2.79989   MPKI: 5.00852
ITLB LOAD TRANSLATION ACCESS:    7673477  HIT:    7603222  MISS:      70255  HIT %:    99.0844  MISS %:   0.915556   MPKI: 1.4051
ITLB TRANSLATION FROM L1D PREFETCHER ACCESS:    1270656  HIT:    1090485  MISS:     180171  HIT %:    85.8206  MISS %:    14.1794   MPKI: 3.60342
ITLB PREFETCH  REQUESTED:          0  ISSUED:          0  USEFUL:     146096  USELESS:      34081
ITLB USEFUL LOAD PREFETCHES:     146096 PREFETCH ISSUED TO LOWER LEVEL:          0  ACCURACY: inf
ITLB TIMELY PREFETCHES:     146096 LATE PREFETCHES: 1067 DROPPED PREFETCHES: 15386
ITLB PREFETCHES SAME FILL-ORIGIN LEVEL: 0 DIFFERENT FILL-ORIGIN LEVEL: 0
ITLB AVERAGE MISS LATENCY: 219713 cycles
ITLB RQ	ACCESS:   12585017	FORWARD:          0	MERGED:    3593585	TO_CACHE:    8991432

DTLB TOTAL     ACCESS:    9348584  HIT:    8709703  MISS:     638881  HIT %:     93.166  MISS %:    6.83399   MPKI: 12.7776
DTLB LOAD TRANSLATION ACCESS:    9348584  HIT:    8709703  MISS:     638881  HIT %:     93.166  MISS %:    6.83399   MPKI: 12.7776
DTLB PREFETCH  REQUESTED:          0  ISSUED:          0  USEFUL:          0  USELESS:          0
DTLB USEFUL LOAD PREFETCHES:          0 PREFETCH ISSUED TO LOWER LEVEL:          0  ACCURACY: -nan
DTLB TIMELY PREFETCHES:          0 LATE PREFETCHES: 0 DROPPED PREFETCHES: 0
DTLB PREFETCHES SAME FILL-ORIGIN LEVEL: 0 DIFFERENT FILL-ORIGIN LEVEL: 0
DTLB AVERAGE MISS LATENCY: 15.3389 cycles
DTLB RQ	ACCESS:   11877631	FORWARD:          0	MERGED:    2489088	TO_CACHE:    9388543

STLB TOTAL     ACCESS:     890455  HIT:     769800  MISS:     120655  HIT %:    86.4502  MISS %:    13.5498   MPKI: 2.4131
STLB LOAD TRANSLATION ACCESS:     708069  HIT:     616091  MISS:      91978  HIT %:      87.01  MISS %:      12.99   MPKI: 1.83956
STLB TRANSLATION FROM L1D PREFETCHER ACCESS:     182386  HIT:     153709  MISS:      28677  HIT %:    84.2768  MISS %:    15.7232   MPKI: 0.57354
STLB PREFETCH  REQUESTED:          0  ISSUED:          0  USEFUL:      16977  USELESS:      11696
STLB USEFUL LOAD PREFETCHES:      16977 PREFETCH ISSUED TO LOWER LEVEL:          0  ACCURACY: inf
STLB TIMELY PREFETCHES:      16977 LATE PREFETCHES: 1 DROPPED PREFETCHES: 15386
STLB PREFETCHES SAME FILL-ORIGIN LEVEL: 0 DIFFERENT FILL-ORIGIN LEVEL: 0
STLB AVERAGE MISS LATENCY: 47.3951 cycles
STLB RQ	ACCESS:     906048	FORWARD:          0	MERGED:        205	TO_CACHE:     905843

STLB Hit, L1D data hit: 0
STLB Hit, L2C data hit: 0
STLB Hit, LLC data hit: 0
STLB Hit, LLC data miss: 0
STLB STLB hints to L2: 0
L1D TOTAL     ACCESS:   11711726  HIT:   11075140  MISS:     636586  HIT %:    94.5645  MISS %:    5.43546   MPKI: 12.7317
L1D LOAD      ACCESS:    6735510  HIT:    6190195  MISS:     545315  HIT %:    91.9039  MISS %:    8.09612   MPKI: 10.9063
L1D RFO       ACCESS:    4974894  HIT:    4884313  MISS:      90581  HIT %:    98.1792  MISS %:    1.82076   MPKI: 1.81162
L1D PREFETCH  ACCESS:       1322  HIT:        632  MISS:        690  HIT %:    47.8064  MISS %:    52.1936   MPKI: 0.0138
L1D PREFETCH  REQUESTED:       2709  ISSUED:       2709  USEFUL:         99  USELESS:        635
L1D USEFUL LOAD PREFETCHES:         99 PREFETCH ISSUED TO LOWER LEVEL:        700  ACCURACY: 14.1429
L1D TIMELY PREFETCHES:         99 LATE PREFETCHES: 10 DROPPED PREFETCHES: 0
L1D PREFETCHES SAME FILL-ORIGIN LEVEL: 700 DIFFERENT FILL-ORIGIN LEVEL: 0
L1D AVERAGE MISS LATENCY: 1155.9 cycles
L1D RQ	ACCESS:   10392993	FORWARD:          0	MERGED:    3529819	TO_CACHE:    6775772
L1D WQ	ACCESS:    5225435	FORWARD:      87403	MERGED:     123576	TO_CACHE:    5101859
L1D PQ	ACCESS:       1355	FORWARD:          0	MERGED:          0	TO_CACHE:       1354

L1D UNIQUE REGIONS ACCESSED: 0
L1D REGIONS CONFLICTS: 0
L1D Cross Page Prefetch Requests: 0
L1D Same Page Prefetch Requests: 90568
L1D ROI Sum of L1D PQ occupancy: 17670
L1D PREFETCHES PUSHED FROM L2C: 0
L1I TOTAL     ACCESS:   12396650  HIT:   10318537  MISS:    2078113  HIT %:    83.2365  MISS %:    16.7635   MPKI: 41.5623
L1I LOAD      ACCESS:    9418079  HIT:    9161004  MISS:     257075  HIT %:    97.2704  MISS %:    2.72959   MPKI: 5.1415
L1I PREFETCH  ACCESS:    2978571  HIT:    1157533  MISS:    1821038  HIT %:     38.862  MISS %:     61.138   MPKI: 36.4208
L1I PREFETCH  REQUESTED:    3251955  ISSUED:    3242961  USEFUL:    1202895  USELESS:     618201
L1I USEFUL LOAD PREFETCHES:    1202895 PREFETCH ISSUED TO LOWER LEVEL:    1855481  ACCURACY: 64.8293
L1I TIMELY PREFETCHES:    1202895 LATE PREFETCHES: 34442 DROPPED PREFETCHES: 51197
L1I PREFETCHES SAME FILL-ORIGIN LEVEL: 1855481 DIFFERENT FILL-ORIGIN LEVEL: 0
L1I AVERAGE MISS LATENCY: 816907 cycles
L1I RQ	ACCESS:   13692573	FORWARD:          0	MERGED:    4245019	TO_CACHE:    9447554
L1I PQ	ACCESS:    3242961	FORWARD:          0	MERGED:     105498	TO_CACHE:    3137463

BTB TOTAL     ACCESS:    4512075  HIT:    3722870  MISS:     789205  HIT %:     82.509  MISS %:     17.491   MPKI: 15.7841
BTB BRANCH_DIRECT_JUMP	ACCESS:     469809  HIT:     407045  MISS:      62764
BTB BRANCH_INDIRECT	ACCESS:     153732  HIT:     119846  MISS:      33886
BTB BRANCH_CONDITIONAL	ACCESS:    2157421  HIT:    1900789  MISS:     256632
BTB BRANCH_DIRECT_CALL	ACCESS:     679877  HIT:     561787  MISS:     118090
BTB BRANCH_INDIRECT_CALL	ACCESS:     168745  HIT:     156218  MISS:      12527
BTB BRANCH_RETURN	ACCESS:     882491  HIT:     577185  MISS:     305306
BTB BRANCH_OTHER ACCESS:          0  HIT:          0  MISS:          0

L2C TOTAL     ACCESS:    3515928  HIT:    2223318  MISS:    1292610  HIT %:    63.2356  MISS %:    36.7644   MPKI: 25.8522
L2C LOAD      ACCESS:     767917  HIT:     350408  MISS:     417509  HIT %:     45.631  MISS %:     54.369   MPKI: 8.35018
L2C DATA LOAD MPKI: 6.61714
L2C INSTRUCTION LOAD MPKI: 1.73304
L2C RFO       ACCESS:      90574  HIT:      38747  MISS:      51827  HIT %:    42.7794  MISS %:    57.2206   MPKI: 1.03654
L2C PREFETCH  ACCESS:    2221685  HIT:    1491591  MISS:     730094  HIT %:    67.1378  MISS %:    32.8622   MPKI: 14.6019
L2C DATA PREFETCH MPKI: 2.15456
L2C INSTRUCTION PREFETCH MPKI: 12.4473
L2C WRITEBACK ACCESS:     254714  HIT:     228735  MISS:      25979  HIT %:    89.8007  MISS %:    10.1993   MPKI: 0.51958
L2C LOAD TRANSLATION ACCESS:     121585  HIT:      65707  MISS:      55878  HIT %:     54.042  MISS %:     45.958   MPKI: 1.11756
L2C TRANSLATION FROM L1D PREFETCHER ACCESS:      59453  HIT:      48130  MISS:      11323  HIT %:    80.9547  MISS %:    19.0453   MPKI: 0.22646
L2C PREFETCH  REQUESTED:    1122556  ISSUED:    1122556  USEFUL:      26587  USELESS:     715766
L2C USEFUL LOAD PREFETCHES:      26587 PREFETCH ISSUED TO LOWER LEVEL:     730273  ACCURACY: 3.64069
L2C TIMELY PREFETCHES:      26587 LATE PREFETCHES: 177 DROPPED PREFETCHES: 0
L2C PREFETCHES SAME FILL-ORIGIN LEVEL: 128607 DIFFERENT FILL-ORIGIN LEVEL: 0
L2C AVERAGE MISS LATENCY: 38.2154 cycles
L2C RQ	ACCESS:    1039557	FORWARD:          0	MERGED:          0	TO_CACHE:    1039529
L2C WQ	ACCESS:     254714	FORWARD:         28	MERGED:          0	TO_CACHE:     254714
L2C PQ	ACCESS:    2978737	FORWARD:          0	MERGED:     734345	TO_CACHE:    2244392

L2C Instructions Evicting Data 283008
L2C Translations Evicting Data 26227
L2C Data Evicting Data 197531
L2C Instructions Evicting Instructions 388316
L2C Translations Evicting Instructions 37926
L2C Data Evicting Instructions 267716
L2C Instructions Evicting Translations 37694
L2C Translations Evicting Translations 3048
L2C Data Evicting Translations 25165
L2C Dense regions hint from L2: 0
PSCL5 TOTAL     ACCESS:     136041  HIT:     136041  MISS:          0  HIT %:        100  MISS %:          0   MPKI: 0
PSCL5 LOAD TRANSLATION ACCESS:      91977  HIT:      91977  MISS:          0  HIT %:        100  MISS %:          0   MPKI: 0
PSCL5 TRANSLATION FROM L1D PREFETCHER ACCESS:      44064  HIT:      44064  MISS:          0  HIT %:        100  MISS %:          0   MPKI: 0
PSCL5 PREFETCH  REQUESTED:          0  ISSUED:          0  USEFUL:          0  USELESS:          0
PSCL5 USEFUL LOAD PREFETCHES:          0 PREFETCH ISSUED TO LOWER LEVEL:          0  ACCURACY: -nan
PSCL5 TIMELY PREFETCHES:          0 LATE PREFETCHES: 0 DROPPED PREFETCHES: 0
PSCL5 PREFETCHES SAME FILL-ORIGIN LEVEL: 0 DIFFERENT FILL-ORIGIN LEVEL: 0

PSCL4 TOTAL     ACCESS:     127634  HIT:     127275  MISS:        359  HIT %:    99.7187  MISS %:   0.281273   MPKI: 0.00718
PSCL4 LOAD TRANSLATION ACCESS:      88965  HIT:      88606  MISS:        359  HIT %:    99.5965  MISS %:   0.403529   MPKI: 0.00718
PSCL4 TRANSLATION FROM L1D PREFETCHER ACCESS:      38669  HIT:      38669  MISS:          0  HIT %:        100  MISS %:          0   MPKI: 0
PSCL4 PREFETCH  REQUESTED:          0  ISSUED:          0  USEFUL:          0  USELESS:          0
PSCL4 USEFUL LOAD PREFETCHES:          0 PREFETCH ISSUED TO LOWER LEVEL:          0  ACCURACY: -nan
PSCL4 TIMELY PREFETCHES:          0 LATE PREFETCHES: 0 DROPPED PREFETCHES: 0
PSCL4 PREFETCHES SAME FILL-ORIGIN LEVEL: 0 DIFFERENT FILL-ORIGIN LEVEL: 0

PSCL3 TOTAL     ACCESS:     133527  HIT:     132536  MISS:        991  HIT %:    99.2578  MISS %:   0.742172   MPKI: 0.01982
PSCL3 LOAD TRANSLATION ACCESS:      91778  HIT:      90787  MISS:        991  HIT %:    98.9202  MISS %:    1.07978   MPKI: 0.01982
PSCL3 TRANSLATION FROM L1D PREFETCHER ACCESS:      41749  HIT:      41749  MISS:          0  HIT %:        100  MISS %:          0   MPKI: 0
PSCL3 PREFETCH  REQUESTED:          0  ISSUED:          0  USEFUL:          0  USELESS:          0
PSCL3 USEFUL LOAD PREFETCHES:          0 PREFETCH ISSUED TO LOWER LEVEL:          0  ACCURACY: -nan
PSCL3 TIMELY PREFETCHES:          0 LATE PREFETCHES: 0 DROPPED PREFETCHES: 0
PSCL3 PREFETCHES SAME FILL-ORIGIN LEVEL: 0 DIFFERENT FILL-ORIGIN LEVEL: 0

PSCL2 TOTAL     ACCESS:     125680  HIT:      93575  MISS:      32105  HIT %:     74.455  MISS %:     25.545   MPKI: 0.6421
PSCL2 LOAD TRANSLATION ACCESS:      95566  HIT:      63461  MISS:      32105  HIT %:    66.4054  MISS %:    33.5946   MPKI: 0.6421
PSCL2 TRANSLATION FROM L1D PREFETCHER ACCESS:      30114  HIT:      30114  MISS:          0  HIT %:        100  MISS %:          0   MPKI: 0
PSCL2 PREFETCH  REQUESTED:          0  ISSUED:          0  USEFUL:          0  USELESS:          0
PSCL2 USEFUL LOAD PREFETCHES:          0 PREFETCH ISSUED TO LOWER LEVEL:          0  ACCURACY: -nan
PSCL2 TIMELY PREFETCHES:          0 LATE PREFETCHES: 0 DROPPED PREFETCHES: 0
PSCL2 PREFETCHES SAME FILL-ORIGIN LEVEL: 0 DIFFERENT FILL-ORIGIN LEVEL: 0

LLC TOTAL     ACCESS:    1404755  HIT:    1331703  MISS:      73052  HIT %:    94.7997  MISS %:    5.20034   MPKI: 1.46104
LLC LOAD      ACCESS:     417331  HIT:     364228  MISS:      53103  HIT %:    87.2756  MISS %:    12.7244   MPKI: 1.06206
LLC RFO       ACCESS:      51823  HIT:      39420  MISS:      12403  HIT %:    76.0666  MISS %:    23.9334   MPKI: 0.24806
LLC PREFETCH  ACCESS:     730272  HIT:     724735  MISS:       5537  HIT %:    99.2418  MISS %:   0.758211   MPKI: 0.11074
LLC WRITEBACK ACCESS:     138128  HIT:     137429  MISS:        699  HIT %:    99.4939  MISS %:   0.506052   MPKI: 0.01398
LLC LOAD TRANSLATION ACCESS:      55878  HIT:      54602  MISS:       1276  HIT %:    97.7165  MISS %:    2.28355   MPKI: 0.02552
LLC TRANSLATION FROM L1D PREFETCHER ACCESS:      11323  HIT:      11289  MISS:         34  HIT %:    99.6997  MISS %:   0.300274   MPKI: 0.00068
LLC PREFETCH  REQUESTED:          0  ISSUED:          0  USEFUL:        577  USELESS:      11174
LLC USEFUL LOAD PREFETCHES:        577 PREFETCH ISSUED TO LOWER LEVEL:       5537  ACCURACY: 10.4208
LLC TIMELY PREFETCHES:        577 LATE PREFETCHES: 0 DROPPED PREFETCHES: 0
LLC PREFETCHES SAME FILL-ORIGIN LEVEL: 0 DIFFERENT FILL-ORIGIN LEVEL: 0
LLC AVERAGE MISS LATENCY: 155.071 cycles
LLC RQ	ACCESS:     536360	FORWARD:          0	MERGED:          0	TO_CACHE:     536355
LLC WQ	ACCESS:     138128	FORWARD:          5	MERGED:          0	TO_CACHE:     138128
LLC PQ	ACCESS:     730273	FORWARD:          0	MERGED:          0	TO_CACHE:     730273

LLC Dense regions hint to LLC: 0

RAW hits: 1041640
Loads Generated: 11434634
Loads sent to L1D: 10392993
Stores Generated: 5225429
Stores sent to L1D: 5225435
Major fault: 0 Minor fault: 5918
Allocated PAGES: 5918
I-Shadow cache 408 bytes
Touched + WorthPF tables 6144 bytes 
MMA filter 174 bytes 
FNL filter 272 bytes 
TOTAL PREFETCHER STORAGE SIZE: 25174 bytes
CPU 0 L1I next line prefetcher final stats

stream: 
stream:times selected: 115349
stream:pref_filled: 25245
stream:pref_useful: 6902
stream:pref_late: 953
stream:misses: 1157
stream:misses_by_poll: 0

CS: 
CS:times selected: 14094
CS:pref_filled: 9544
CS:pref_useful: 8195
CS:pref_late: 2672
CS:misses: 3938
CS:misses_by_poll: 0

CPLX: 
CPLX:times selected: 100129
CPLX:pref_filled: 6897
CPLX:pref_useful: 1039
CPLX:pref_late: 316
CPLX:misses: 8549
CPLX:misses_by_poll: 0

NL_L1: 
NL:times selected: 552
NL:pref_filled: 244
NL:pref_useful: 20
NL:pref_late: 5
NL:misses: 46
NL:misses_by_poll: 0

total selections: 230124
total_filled: 690
total_useful: 99
total_late: 4164
total_polluted: 0
total_misses_after_warmup: 1741
conflicts: 735
Degree Incremented Times: 66514
Degree Decremented Times: 47159

L1 IP Table Write Accesses: 11798
L1 IP Table Read Accesses: 11063
L1 RST Write Accesses: 2887
L1 RST Read Accesses: 5774
L1 CSPT Write Accesses: 2887
L1 CSPT Read Accesses: 5725
L1 RR Filter Tag Write Accesses: 1355
L1 RR Filter Tag Read Accesses: 97060
L1 IP Table Tag Write Accesses: 13182
L1 IP Table Tag Read Accesses: 13182
L1 RST Tag Write Accesses: 0
L1 RST Tag Read Accesses: 25038
L1 RR Filter Write Accesses: 0
L1 RR Filter Read Accesses: 4118
test: 32508
L2 IP Table Read Accesses: 1147122
L2 IP Table Write Accesses: 2286320
L2 IP Table Tag Read Accesses: 1144353
L2 IP Table Tag Write Accesses: 1144353

DRAM Statistics
 CHANNEL 0
 RQ ROW_BUFFER_HIT:      11673  ROW_BUFFER_MISS:      60680
 DBUS_CONGESTED:         45
 WQ ROW_BUFFER_HIT:       9735  ROW_BUFFER_MISS:      42885  FULL:          0

 AVG_CONGESTED_CYCLE: 4
 All warmup complete: 2
Channel 0 Bank busy for read cycles: 0
Channel 0 Bank busy for write cycles: 0
Channel 0
Rank 0
0banks busy for read cycles: 57963017
0banks busy for write cycles: 25342
1banks busy for read cycles: 5884563
1banks busy for write cycles: 3444645
2banks busy for read cycles: 1152179
2banks busy for write cycles: 1039175
3banks busy for read cycles: 224228
3banks busy for write cycles: 334083
4banks busy for read cycles: 78963
4banks busy for write cycles: 158729
5banks busy for read cycles: 33351
5banks busy for write cycles: 98795
6banks busy for read cycles: 24305
6banks busy for write cycles: 79632
7banks busy for read cycles: 16333
7banks busy for write cycles: 88545
8banks busy for read cycles: 10306
8banks busy for write cycles: 119218

CPU 0 Branch Prediction Accuracy: 99.4607% MPKI: 1.00288 Average ROB Occupancy at Mispredict: 63.7261
Branch types
NOT_BRANCH: 40700967 81.4019%
BRANCH_DIRECT_JUMP: 469809 0.939618%
BRANCH_INDIRECT: 153732 0.307464%
BRANCH_CONDITIONAL: 6944059 13.8881%
BRANCH_DIRECT_CALL: 679877 1.35975%
BRANCH_INDIRECT_CALL: 168745 0.33749%
BRANCH_RETURN: 882491 1.76498%
BRANCH_OTHER: 0 0%

DRAM PAGES: 1048576
Allocated PAGES: 5918
