
*** ChampSim Multicore Out-of-Order Simulator ***

Warmup Instructions: 50000000
Simulation Instructions: 50000000
Number of CPUs: 1
LLC sets: 2048
LLC ways: 16
Off-chip DRAM Size: 4096 MB Channels: 1 Width: 64-bit Data Rate: 6400 MT/s
CPU 0 runs ../IPC-traces//server_004.champsimtrace.xz
.xz
NUM_OF_IPS_IN_CRITICAL_IP_TRAINING: 64
NUM_OF_CRITICAL_IP_TRAINING_TABLE_WAYS: 2
NUM_OF_CRITICAL_IP_TRAINING_TABLE_SETS: 32
WOBBLY_CRITICAL_IP_CACHE_SETS: 32
WOBBLY_CRITICAL_IP_CACHE_WAYS: 4
BTB has LRU replacement policy
ITLB has LRU replacement policy
DTLB has LRU replacement policy
STLB has LRU replacement policy
CPU 0 L1I next line prefetcher
L1I has LRU replacement policy
IP Table Entries: 256
L1D has LRU replacement policy
Initialize SRRIP state for L2C
Initialize DRRIP state for LLC
Heartbeat CPU 0 instructions: 10000002 cycles: 2773225 heartbeat IPC: 3.60591 cumulative IPC: 3.60591 (Simulation time: 0 hr 2 min 19 sec) 
Heartbeat CPU 0 instructions: 20000002 cycles: 5586629 heartbeat IPC: 3.55441 cumulative IPC: 3.57998 (Simulation time: 0 hr 4 min 42 sec) 
Heartbeat CPU 0 instructions: 30000000 cycles: 10006436 heartbeat IPC: 2.26254 cumulative IPC: 2.99807 (Simulation time: 0 hr 8 min 24 sec) 
Heartbeat CPU 0 instructions: 40000003 cycles: 13221607 heartbeat IPC: 3.11026 cumulative IPC: 3.02535 (Simulation time: 0 hr 11 min 7 sec) 
Heartbeat CPU 0 instructions: 50000003 cycles: 15988152 heartbeat IPC: 3.61462 cumulative IPC: 3.12732 (Simulation time: 0 hr 13 min 16 sec) 

Warmup complete CPU 0 instructions: 50000003 cycles: 15988152 (Simulation time: 0 hr 13 min 16 sec) 

% increase in all ip prefetch 364.907
% increase in all ip prefetch -19.2095
Heartbeat CPU 0 instructions: 60000002 cycles: 31526685 heartbeat IPC: 0.643561 cumulative IPC: 0.643561 (Simulation time: 0 hr 15 min 44 sec) 
Heartbeat CPU 0 instructions: 70000000 cycles: 46502405 heartbeat IPC: 0.667747 cumulative IPC: 0.655431 (Simulation time: 0 hr 18 min 11 sec) 
Heartbeat CPU 0 instructions: 80000001 cycles: 74386476 heartbeat IPC: 0.358628 cumulative IPC: 0.513713 (Simulation time: 0 hr 21 min 51 sec) 
Heartbeat CPU 0 instructions: 90000000 cycles: 97341625 heartbeat IPC: 0.435632 cumulative IPC: 0.491681 (Simulation time: 0 hr 25 min 50 sec) 
Heartbeat CPU 0 instructions: 100000002 cycles: 113082715 heartbeat IPC: 0.63528 cumulative IPC: 0.514962 (Simulation time: 0 hr 29 min 36 sec) 
Finished CPU 0 instructions: 50000000 cycles: 97094565 cumulative IPC: 0.514962 (Simulation time: 0 hr 29 min 36 sec) 

ChampSim completed all CPUs

Region of Interest Statistics

CPU 0 cumulative IPC: 0.514962 instructions: 50000000 cycles: 97094565

CPU 0 Average Load ROB stall cycles: 3.21988e+07
CPU 0 Fraction of times ROB stalled by Loads: 49.3569
CPU 0 Percentage of Load stall cycles in Total stall cycles: 3.19014e+08
Issued all: 35770123
Issued LT all: 30408566
rob_not_full_when_issued_lt_all: 21616726
Issued LT one: 24233679
rob_not_full_when_issued_lt_one: 16260619
critical_ip_candidate_identification_operations: 8018556
critical_ip_candidate_identification_operation_per_cycle: 0.082585
 Total stall cycles: 81987547
 Total load stall cycles: 261551720134238
Unique Load IPs: 67442
CPU 0 NUM of IPS identified critical: 85
CPU 0 Num of Load IPs stalling ROB: 46682
Threshold modification factor: -1
Max PIST entries: 64
Min PIST entries: 0
Avg PIST entries: 31.57
Trouble in retire width: 0.940452
MaC = Marked as critical.
lt_50_percent_before_Mac: 57
gt_90_percent_before_Mac: 9
gt_75_percent_before_Mac: 4
gt_50_percent_before_Mac: 14
stall_proportion_bin_same_before_after: 0
stall_proportion_bin_lower_before_after: 0
stall_proportion_bin_upper_before_after: 0
average_stall_proportion_before: 0.0528117
average_stall_proportion_after: 0.0561321
Critical IP stalls, total frequency: 1709585
Non-critical IP stalls, total frequency: 2299693
Total Freq all stalling IPs: 4009278
Critical_IP_Detector_Accuracy_70: 0.647059
Critical_IP_Detector_Accuracy_80: 0.917647
Critical_IP_Detector_Accuracy_90: 1
Critical_IP_Detector_Coverage_70: 0.0842266
Critical_IP_Detector_Coverage_80: 0.0419806
Critical_IP_Detector_Coverage_90: 0.0145324
stat_90_percent_critical_ip_stalls_freq: 3608387
stat_90_percent_non_critical_ip_stalls_freq: 400891
AVERAGE_ROB_Occupancy_90_Percent_Critical_IP_Stalls: 141.843
AVERAGE_ROB_Occupancy_90_Percent_Non_Critical_IP_Stalls: 44.932
Critical_IP_ROB_Stalls_Bucket_0: 90221
Non-critical_IP_ROB_Stalls_Bucket_0: 1350127
Critical_IP_ROB_Stalls_Bucket_1: 160763
Non-critical_IP_ROB_Stalls_Bucket_1: 612753
Critical_IP_ROB_Stalls_Bucket_2: 203446
Non-critical_IP_ROB_Stalls_Bucket_2: 201600
Critical_IP_ROB_Stalls_Bucket_3: 218331
Non-critical_IP_ROB_Stalls_Bucket_3: 61650
Critical_IP_ROB_Stalls_Bucket_4: 202208
Non-critical_IP_ROB_Stalls_Bucket_4: 29943
Critical_IP_ROB_Stalls_Bucket_5: 212020
Non-critical_IP_ROB_Stalls_Bucket_5: 16625
Critical_IP_ROB_Stalls_Bucket_6: 622596
Non-critical_IP_ROB_Stalls_Bucket_6: 26995
0 => IPs accounting for >50 percent of stalls, 1 => 55, 2 => 60, 3 => 65 and so on till 90.
percent50: 50.0319 num IPs:  73
percent55: 55.0876 num IPs: 112
percent60: 60.0133 num IPs: 185
percent65: 65.0023 num IPs: 346
percent70: 70.0048 num IPs: 653
percent75: 75.0055 num IPs: 1126
percent80: 80.0009 num IPs: 1858
percent85: 85.0018 num IPs: 3218
percent90: 90.0003 num IPs: 5849
Critical_ROB_Stalls_Percent_0_Bucket_0: 290351
Non-critical_ROB_Stalls_Percent_0_Bucket_0: 1149997
Critical_ROB_Stalls_Percent_0_Bucket_1: 252899
Non-critical_ROB_Stalls_Percent_0_Bucket_1: 520617
Critical_ROB_Stalls_Percent_0_Bucket_2: 221565
Non-critical_ROB_Stalls_Percent_0_Bucket_2: 183481
Critical_ROB_Stalls_Percent_0_Bucket_3: 215173
Non-critical_ROB_Stalls_Percent_0_Bucket_3: 64808
Critical_ROB_Stalls_Percent_0_Bucket_4: 200397
Non-critical_ROB_Stalls_Percent_0_Bucket_4: 31754
Critical_ROB_Stalls_Percent_0_Bucket_5: 210134
Non-critical_ROB_Stalls_Percent_0_Bucket_5: 18511
Critical_ROB_Stalls_Percent_0_Bucket_6: 615397
Non-critical_ROB_Stalls_Percent_0_Bucket_6: 34194
Critical_ROB_Stalls_Percent_1_Bucket_0: 399523
Non-critical_ROB_Stalls_Percent_1_Bucket_0: 1040825
Critical_ROB_Stalls_Percent_1_Bucket_1: 316894
Non-critical_ROB_Stalls_Percent_1_Bucket_1: 456622
Critical_ROB_Stalls_Percent_1_Bucket_2: 241056
Non-critical_ROB_Stalls_Percent_1_Bucket_2: 163990
Critical_ROB_Stalls_Percent_1_Bucket_3: 219251
Non-critical_ROB_Stalls_Percent_1_Bucket_3: 60730
Critical_ROB_Stalls_Percent_1_Bucket_4: 202074
Non-critical_ROB_Stalls_Percent_1_Bucket_4: 30077
Critical_ROB_Stalls_Percent_1_Bucket_5: 211279
Non-critical_ROB_Stalls_Percent_1_Bucket_5: 17366
Critical_ROB_Stalls_Percent_1_Bucket_6: 618537
Non-critical_ROB_Stalls_Percent_1_Bucket_6: 31054
Critical_ROB_Stalls_Percent_2_Bucket_0: 476557
Non-critical_ROB_Stalls_Percent_2_Bucket_0: 963791
Critical_ROB_Stalls_Percent_2_Bucket_1: 391632
Non-critical_ROB_Stalls_Percent_2_Bucket_1: 381884
Critical_ROB_Stalls_Percent_2_Bucket_2: 266386
Non-critical_ROB_Stalls_Percent_2_Bucket_2: 138660
Critical_ROB_Stalls_Percent_2_Bucket_3: 228001
Non-critical_ROB_Stalls_Percent_2_Bucket_3: 51980
Critical_ROB_Stalls_Percent_2_Bucket_4: 205872
Non-critical_ROB_Stalls_Percent_2_Bucket_4: 26279
Critical_ROB_Stalls_Percent_2_Bucket_5: 213120
Non-critical_ROB_Stalls_Percent_2_Bucket_5: 15525
Critical_ROB_Stalls_Percent_2_Bucket_6: 624532
Non-critical_ROB_Stalls_Percent_2_Bucket_6: 25059
Critical_ROB_Stalls_Percent_3_Bucket_0: 568549
Non-critical_ROB_Stalls_Percent_3_Bucket_0: 871799
Critical_ROB_Stalls_Percent_3_Bucket_1: 450332
Non-critical_ROB_Stalls_Percent_3_Bucket_1: 323184
Critical_ROB_Stalls_Percent_3_Bucket_2: 292989
Non-critical_ROB_Stalls_Percent_3_Bucket_2: 112057
Critical_ROB_Stalls_Percent_3_Bucket_3: 237043
Non-critical_ROB_Stalls_Percent_3_Bucket_3: 42938
Critical_ROB_Stalls_Percent_3_Bucket_4: 210433
Non-critical_ROB_Stalls_Percent_3_Bucket_4: 21718
Critical_ROB_Stalls_Percent_3_Bucket_5: 216183
Non-critical_ROB_Stalls_Percent_3_Bucket_5: 12462
Critical_ROB_Stalls_Percent_3_Bucket_6: 630593
Non-critical_ROB_Stalls_Percent_3_Bucket_6: 18998
Critical_ROB_Stalls_Percent_4_Bucket_0: 663990
Non-critical_ROB_Stalls_Percent_4_Bucket_0: 776358
Critical_ROB_Stalls_Percent_4_Bucket_1: 512594
Non-critical_ROB_Stalls_Percent_4_Bucket_1: 260922
Critical_ROB_Stalls_Percent_4_Bucket_2: 317305
Non-critical_ROB_Stalls_Percent_4_Bucket_2: 87741
Critical_ROB_Stalls_Percent_4_Bucket_3: 245124
Non-critical_ROB_Stalls_Percent_4_Bucket_3: 34857
Critical_ROB_Stalls_Percent_4_Bucket_4: 214228
Non-critical_ROB_Stalls_Percent_4_Bucket_4: 17923
Critical_ROB_Stalls_Percent_4_Bucket_5: 218733
Non-critical_ROB_Stalls_Percent_4_Bucket_5: 9912
Critical_ROB_Stalls_Percent_4_Bucket_6: 634711
Non-critical_ROB_Stalls_Percent_4_Bucket_6: 14880
Critical_ROB_Stalls_Percent_5_Bucket_0: 762959
Non-critical_ROB_Stalls_Percent_5_Bucket_0: 677389
Critical_ROB_Stalls_Percent_5_Bucket_1: 578643
Non-critical_ROB_Stalls_Percent_5_Bucket_1: 194873
Critical_ROB_Stalls_Percent_5_Bucket_2: 335568
Non-critical_ROB_Stalls_Percent_5_Bucket_2: 69478
Critical_ROB_Stalls_Percent_5_Bucket_3: 251895
Non-critical_ROB_Stalls_Percent_5_Bucket_3: 28086
Critical_ROB_Stalls_Percent_5_Bucket_4: 218222
Non-critical_ROB_Stalls_Percent_5_Bucket_4: 13929
Critical_ROB_Stalls_Percent_5_Bucket_5: 221550
Non-critical_ROB_Stalls_Percent_5_Bucket_5: 7095
Critical_ROB_Stalls_Percent_5_Bucket_6: 638341
Non-critical_ROB_Stalls_Percent_5_Bucket_6: 11250
Critical_ROB_Stalls_Percent_6_Bucket_0: 883059
Non-critical_ROB_Stalls_Percent_6_Bucket_0: 557289
Critical_ROB_Stalls_Percent_6_Bucket_1: 630735
Non-critical_ROB_Stalls_Percent_6_Bucket_1: 142781
Critical_ROB_Stalls_Percent_6_Bucket_2: 351576
Non-critical_ROB_Stalls_Percent_6_Bucket_2: 53470
Critical_ROB_Stalls_Percent_6_Bucket_3: 257507
Non-critical_ROB_Stalls_Percent_6_Bucket_3: 22474
Critical_ROB_Stalls_Percent_6_Bucket_4: 221137
Non-critical_ROB_Stalls_Percent_6_Bucket_4: 11014
Critical_ROB_Stalls_Percent_6_Bucket_5: 223213
Non-critical_ROB_Stalls_Percent_6_Bucket_5: 5432
Critical_ROB_Stalls_Percent_6_Bucket_6: 640235
Non-critical_ROB_Stalls_Percent_6_Bucket_6: 9356
Critical_ROB_Stalls_Percent_7_Bucket_0: 1011414
Non-critical_ROB_Stalls_Percent_7_Bucket_0: 428934
Critical_ROB_Stalls_Percent_7_Bucket_1: 673209
Non-critical_ROB_Stalls_Percent_7_Bucket_1: 100307
Critical_ROB_Stalls_Percent_7_Bucket_2: 367949
Non-critical_ROB_Stalls_Percent_7_Bucket_2: 37097
Critical_ROB_Stalls_Percent_7_Bucket_3: 263702
Non-critical_ROB_Stalls_Percent_7_Bucket_3: 16279
Critical_ROB_Stalls_Percent_7_Bucket_4: 224564
Non-critical_ROB_Stalls_Percent_7_Bucket_4: 7587
Critical_ROB_Stalls_Percent_7_Bucket_5: 224875
Non-critical_ROB_Stalls_Percent_7_Bucket_5: 3770
Critical_ROB_Stalls_Percent_7_Bucket_6: 642258
Non-critical_ROB_Stalls_Percent_7_Bucket_6: 7333
Critical_ROB_Stalls_Percent_8_Bucket_0: 1143671
Non-critical_ROB_Stalls_Percent_8_Bucket_0: 296677
Critical_ROB_Stalls_Percent_8_Bucket_1: 715290
Non-critical_ROB_Stalls_Percent_8_Bucket_1: 58226
Critical_ROB_Stalls_Percent_8_Bucket_2: 381697
Non-critical_ROB_Stalls_Percent_8_Bucket_2: 23349
Critical_ROB_Stalls_Percent_8_Bucket_3: 269411
Non-critical_ROB_Stalls_Percent_8_Bucket_3: 10570
Critical_ROB_Stalls_Percent_8_Bucket_4: 227719
Non-critical_ROB_Stalls_Percent_8_Bucket_4: 4432
Critical_ROB_Stalls_Percent_8_Bucket_5: 226288
Non-critical_ROB_Stalls_Percent_8_Bucket_5: 2357
Critical_ROB_Stalls_Percent_8_Bucket_6: 644311
Non-critical_ROB_Stalls_Percent_8_Bucket_6: 5280
Average ROB occupancy Load Stall Begin: 124.578
Average ROB occupancy Load Stall End: 132.153
Min ROB occupancy Load Stall Begin: 1
Max ROB occupancy Load Stall Begin: 352
Min ROB occupancy Load Stall End: 1
Max ROB occupancy Load Stall End: 352
Average ROB occupancy Critical Load Stall Begin: 235.501
Average ROB occupancy Critical Load Stall End: 239.007
Min ROB occupancy Critical Load Stall Begin: 2
Max ROB occupancy Critical Load Stall Begin: 352
Min ROB occupancy Critical Load Stall End: 2
Max ROB occupancy Critical Load Stall End: 352
 ROB Load Stall Begin Bucket Count 0: 1720782
 ROB Load Stall End Bucket Count 0: 1440348
 ROB Critical Load Stall Begin Bucket Count 0: 93975
 ROB Critical Load Stall End Bucket Count 0: 59750
 ROB Load Stall Begin Bucket Count 1: 598675
 ROB Load Stall End Bucket Count 1: 773516
 ROB Critical Load Stall Begin Bucket Count 1: 118550
 ROB Critical Load Stall End Bucket Count 1: 132173
 ROB Load Stall Begin Bucket Count 2: 350875
 ROB Load Stall End Bucket Count 2: 405046
 ROB Critical Load Stall Begin Bucket Count 2: 192809
 ROB Critical Load Stall End Bucket Count 2: 193579
 ROB Load Stall Begin Bucket Count 3: 255065
 ROB Load Stall End Bucket Count 3: 279981
 ROB Critical Load Stall Begin Bucket Count 3: 209440
 ROB Critical Load Stall End Bucket Count 3: 216214
 ROB Load Stall Begin Bucket Count 4: 227425
 ROB Load Stall End Bucket Count 4: 232151
 ROB Critical Load Stall Begin Bucket Count 4: 202941
 ROB Critical Load Stall End Bucket Count 4: 201380
 ROB Load Stall Begin Bucket Count 5: 220996
 ROB Load Stall End Bucket Count 5: 228645
 ROB Critical Load Stall Begin Bucket Count 5: 206427
 ROB Critical Load Stall End Bucket Count 5: 211404
 ROB Load Stall Begin Bucket Count 6: 635461
 ROB Load Stall End Bucket Count 6: 649591
 ROB Critical Load Stall Begin Bucket Count 6: 605355
 ROB Critical Load Stall End Bucket Count 6: 614997
PIST Tag Read Accesses: 2458390
PIST Read Accesses: 1229195
PIST Tag Write Accesses: 2458390
PIST Write Accesses: 1229195
Criticality detector called times: 2380859
Max global_stall_cycles_count: 3440889
Threshold Modified: 1 times, factor: -1
Sturdy critical IP cache stats: 
 Unused entries: 0
CIC Tag Read Accesses: 0
CIC Read Accesses: 0
CIC Tag Write Accesses: 0
CIC Write Accesses: 0
Wobbly critical IP cache stats: 
 Unused entries: 47
CIC Tag Read Accesses: 87685412
CIC Read Accesses: 0
CIC Tag Write Accesses: 144611
CIC Write Accesses: 0
ITLB TOTAL     ACCESS:    9911780  HIT:    9716980  MISS:     194800  HIT %:    98.0347  MISS %:    1.96534   MPKI: 3.896
ITLB LOAD TRANSLATION ACCESS:    8935823  HIT:    8867234  MISS:      68589  HIT %:    99.2324  MISS %:   0.767573   MPKI: 1.37178
ITLB TRANSLATION FROM L1D PREFETCHER ACCESS:     975957  HIT:     849746  MISS:     126211  HIT %:     87.068  MISS %:     12.932   MPKI: 2.52422
ITLBprefetch_cycle_count: 0 prefetches_per_prefetch_cycle: -nan
ITLB PREFETCH  REQUESTED:          0  ISSUED:          0  USEFUL:     104126  USELESS:      22090
ITLB USEFUL LOAD PREFETCHES:     104126 PREFETCH ISSUED TO LOWER LEVEL:          0  ACCURACY: inf
ITLB TIMELY PREFETCHES:     104126 LATE PREFETCHES: 617 DROPPED PREFETCHES: 10596
ITLB PREFETCHES SAME FILL-ORIGIN LEVEL: 0 DIFFERENT FILL-ORIGIN LEVEL: 0
ITLB AVERAGE MISS LATENCY: 204772 cycles
ITLB RQ	ACCESS:   13009946	FORWARD:          0	MERGED:    3059530	TO_CACHE:    9950416

DTLB TOTAL     ACCESS:   10674360  HIT:    9165064  MISS:    1509296  HIT %:    85.8605  MISS %:    14.1395   MPKI: 30.1859
DTLB LOAD TRANSLATION ACCESS:   10674360  HIT:    9165064  MISS:    1509296  HIT %:    85.8605  MISS %:    14.1395   MPKI: 30.1859
DTLBprefetch_cycle_count: 0 prefetches_per_prefetch_cycle: -nan
DTLB PREFETCH  REQUESTED:          0  ISSUED:          0  USEFUL:          0  USELESS:          0
DTLB USEFUL LOAD PREFETCHES:          0 PREFETCH ISSUED TO LOWER LEVEL:          0  ACCURACY: -nan
DTLB TIMELY PREFETCHES:          0 LATE PREFETCHES: 0 DROPPED PREFETCHES: 0
DTLB PREFETCHES SAME FILL-ORIGIN LEVEL: 0 DIFFERENT FILL-ORIGIN LEVEL: 0
DTLB AVERAGE MISS LATENCY: 11.5163 cycles
DTLB RQ	ACCESS:   13833308	FORWARD:          0	MERGED:    3126611	TO_CACHE:   10706697

STLB TOTAL     ACCESS:    2768566  HIT:    2660756  MISS:     107810  HIT %:    96.1059  MISS %:    3.89407   MPKI: 2.1562
STLB LOAD TRANSLATION ACCESS:    1577269  HIT:    1490262  MISS:      87007  HIT %:    94.4837  MISS %:    5.51631   MPKI: 1.74014
STLB TRANSLATION FROM L1D PREFETCHER ACCESS:    1191297  HIT:    1170494  MISS:      20803  HIT %:    98.2538  MISS %:    1.74625   MPKI: 0.41606
STLBprefetch_cycle_count: 0 prefetches_per_prefetch_cycle: -nan
STLB PREFETCH  REQUESTED:          0  ISSUED:          0  USEFUL:      12024  USELESS:       8811
STLB USEFUL LOAD PREFETCHES:      12024 PREFETCH ISSUED TO LOWER LEVEL:          0  ACCURACY: inf
STLB TIMELY PREFETCHES:      12024 LATE PREFETCHES: 0 DROPPED PREFETCHES: 10597
STLB PREFETCHES SAME FILL-ORIGIN LEVEL: 0 DIFFERENT FILL-ORIGIN LEVEL: 0
STLB AVERAGE MISS LATENCY: 49.3499 cycles
STLB RQ	ACCESS:    3443069	FORWARD:          0	MERGED:     663906	TO_CACHE:    2779163

STLB Hit, L1D data hit: 0
STLB Hit, L2C data hit: 0
STLB Hit, LLC data hit: 0
STLB Hit, LLC data miss: 0
STLB STLB hints to L2: 0
L1D TOTAL     ACCESS:   15343615  HIT:   12613536  MISS:    2730079  HIT %:    82.2071  MISS %:    17.7929   MPKI: 54.6016
L1D LOAD      ACCESS:    8989916  HIT:    7033818  MISS:    1956098  HIT %:    78.2412  MISS %:    21.7588   MPKI: 39.122
L1D RFO       ACCESS:    4683004  HIT:    4578042  MISS:     104962  HIT %:    97.7587  MISS %:    2.24134   MPKI: 2.09924
L1D PREFETCH  ACCESS:    1670695  HIT:    1001676  MISS:     669019  HIT %:    59.9556  MISS %:    40.0444   MPKI: 13.3804
L1Dprefetch_cycle_count: 1143741 prefetches_per_prefetch_cycle: 3.02245
L1D PREFETCH  REQUESTED:    3457171  ISSUED:    3456898  USEFUL:      47780  USELESS:     621281
L1D USEFUL LOAD PREFETCHES:      47780 PREFETCH ISSUED TO LOWER LEVEL:     682806  ACCURACY: 6.9976
L1D TIMELY PREFETCHES:      47780 LATE PREFETCHES: 13638 DROPPED PREFETCHES: 0
L1D PREFETCHES SAME FILL-ORIGIN LEVEL: 682806 DIFFERENT FILL-ORIGIN LEVEL: 0
L1D AVERAGE MISS LATENCY: 382996 cycles
L1D RQ	ACCESS:   12437778	FORWARD:          0	MERGED:    3330326	TO_CACHE:    9022992
L1D WQ	ACCESS:    4946118	FORWARD:      84606	MERGED:     135802	TO_CACHE:    4810316
L1D PQ	ACCESS:    1728522	FORWARD:          0	MERGED:          0	TO_CACHE:    1728376

L1D UNIQUE REGIONS ACCESSED: 0
L1D REGIONS CONFLICTS: 0
L1D Cross Page Prefetch Requests: 0
L1D Same Page Prefetch Requests: 4729171
L1D ROI Sum of L1D PQ occupancy: 23135722
L1D PREFETCHES PUSHED FROM L2C: 0
L1I TOTAL     ACCESS:   12857245  HIT:   11194327  MISS:    1662918  HIT %:    87.0663  MISS %:    12.9337   MPKI: 33.2584
L1I LOAD      ACCESS:   10541562  HIT:   10291686  MISS:     249876  HIT %:    97.6296  MISS %:    2.37039   MPKI: 4.99752
L1I PREFETCH  ACCESS:    2315683  HIT:     902641  MISS:    1413042  HIT %:    38.9795  MISS %:    61.0205   MPKI: 28.2608
L1Iprefetch_cycle_count: 0 prefetches_per_prefetch_cycle: inf
L1I PREFETCH  REQUESTED:    2545380  ISSUED:    2537312  USEFUL:     897212  USELESS:     515750
L1I USEFUL LOAD PREFETCHES:     897212 PREFETCH ISSUED TO LOWER LEVEL:    1443462  ACCURACY: 62.157
L1I TIMELY PREFETCHES:     897212 LATE PREFETCHES: 30420 DROPPED PREFETCHES: 29060
L1I PREFETCHES SAME FILL-ORIGIN LEVEL: 1443462 DIFFERENT FILL-ORIGIN LEVEL: 0
L1I AVERAGE MISS LATENCY: 1.07885e+06 cycles
L1I RQ	ACCESS:   15272092	FORWARD:          0	MERGED:    4706233	TO_CACHE:   10565859
L1I PQ	ACCESS:    2537312	FORWARD:          0	MERGED:      93225	TO_CACHE:    2444087

BTB TOTAL     ACCESS:    6734668  HIT:    5946796  MISS:     787872  HIT %:    88.3012  MISS %:    11.6988   MPKI: 15.7574
BTB BRANCH_DIRECT_JUMP	ACCESS:     551642  HIT:     494500  MISS:      57142
BTB BRANCH_INDIRECT	ACCESS:     139368  HIT:     102277  MISS:      37091
BTB BRANCH_CONDITIONAL	ACCESS:    4079631  HIT:    3873987  MISS:     205644
BTB BRANCH_DIRECT_CALL	ACCESS:     776072  HIT:     672148  MISS:     103924
BTB BRANCH_INDIRECT_CALL	ACCESS:     194644  HIT:     163518  MISS:      31126
BTB BRANCH_RETURN	ACCESS:     993311  HIT:     640366  MISS:     352945
BTB BRANCH_OTHER ACCESS:          0  HIT:          0  MISS:          0

L2C TOTAL     ACCESS:    4774708  HIT:    3765025  MISS:    1009683  HIT %:    78.8535  MISS %:    21.1465   MPKI: 20.1937
L2C LOAD      ACCESS:    2161908  HIT:    1809930  MISS:     351978  HIT %:    83.7191  MISS %:    16.2809   MPKI: 7.03956
L2C DATA LOAD MPKI: 5.15566
L2C INSTRUCTION LOAD MPKI: 1.8839
L2C RFO       ACCESS:     104812  HIT:      55768  MISS:      49044  HIT %:    53.2076  MISS %:    46.7924   MPKI: 0.98088
L2C PREFETCH  ACCESS:    2126267  HIT:    1593819  MISS:     532448  HIT %:    74.9586  MISS %:    25.0414   MPKI: 10.649
L2C DATA PREFETCH MPKI: 0.84556
L2C INSTRUCTION PREFETCH MPKI: 9.8034
L2C WRITEBACK ACCESS:     226671  HIT:     206427  MISS:      20244  HIT %:     91.069  MISS %:    8.93101   MPKI: 0.40488
L2C LOAD TRANSLATION ACCESS:     113449  HIT:      65952  MISS:      47497  HIT %:    58.1336  MISS %:    41.8664   MPKI: 0.94994
L2C TRANSLATION FROM L1D PREFETCHER ACCESS:      41601  HIT:      33129  MISS:       8472  HIT %:    79.6351  MISS %:    20.3649   MPKI: 0.16944
L2Cprefetch_cycle_count: 0 prefetches_per_prefetch_cycle: -nan
L2C PREFETCH  REQUESTED:          0  ISSUED:          0  USEFUL:      20277  USELESS:     520790
L2C USEFUL LOAD PREFETCHES:      20277 PREFETCH ISSUED TO LOWER LEVEL:     532448  ACCURACY: 3.80826
L2C TIMELY PREFETCHES:      20277 LATE PREFETCHES: 0 DROPPED PREFETCHES: 0
L2C PREFETCHES SAME FILL-ORIGIN LEVEL: 0 DIFFERENT FILL-ORIGIN LEVEL: 0
L2C AVERAGE MISS LATENCY: 48.8736 cycles
L2C RQ	ACCESS:    2421779	FORWARD:          0	MERGED:          0	TO_CACHE:    2421770
L2C WQ	ACCESS:     226671	FORWARD:         10	MERGED:          0	TO_CACHE:     226671
L2C PQ	ACCESS:    2126268	FORWARD:          0	MERGED:          0	TO_CACHE:    2126267

L2C Instructions Evicting Data 212085
L2C Translations Evicting Data 20568
L2C Data Evicting Data 129668
L2C Instructions Evicting Instructions 340259
L2C Translations Evicting Instructions 32209
L2C Data Evicting Instructions 199704
L2C Instructions Evicting Translations 32021
L2C Translations Evicting Translations 3192
L2C Data Evicting Translations 19733
L2C Dense regions hint from L2: 0
PSCL5 TOTAL     ACCESS:     118407  HIT:     118407  MISS:          0  HIT %:        100  MISS %:          0   MPKI: 0
PSCL5 LOAD TRANSLATION ACCESS:      87007  HIT:      87007  MISS:          0  HIT %:        100  MISS %:          0   MPKI: 0
PSCL5 TRANSLATION FROM L1D PREFETCHER ACCESS:      31400  HIT:      31400  MISS:          0  HIT %:        100  MISS %:          0   MPKI: 0
PSCL5prefetch_cycle_count: 0 prefetches_per_prefetch_cycle: -nan
PSCL5 PREFETCH  REQUESTED:          0  ISSUED:          0  USEFUL:          0  USELESS:          0
PSCL5 USEFUL LOAD PREFETCHES:          0 PREFETCH ISSUED TO LOWER LEVEL:          0  ACCURACY: -nan
PSCL5 TIMELY PREFETCHES:          0 LATE PREFETCHES: 0 DROPPED PREFETCHES: 0
PSCL5 PREFETCHES SAME FILL-ORIGIN LEVEL: 0 DIFFERENT FILL-ORIGIN LEVEL: 0

PSCL4 TOTAL     ACCESS:     108992  HIT:     108722  MISS:        270  HIT %:    99.7523  MISS %:   0.247725   MPKI: 0.0054
PSCL4 LOAD TRANSLATION ACCESS:      83678  HIT:      83408  MISS:        270  HIT %:    99.6773  MISS %:   0.322665   MPKI: 0.0054
PSCL4 TRANSLATION FROM L1D PREFETCHER ACCESS:      25314  HIT:      25314  MISS:          0  HIT %:        100  MISS %:          0   MPKI: 0
PSCL4prefetch_cycle_count: 0 prefetches_per_prefetch_cycle: -nan
PSCL4 PREFETCH  REQUESTED:          0  ISSUED:          0  USEFUL:          0  USELESS:          0
PSCL4 USEFUL LOAD PREFETCHES:          0 PREFETCH ISSUED TO LOWER LEVEL:          0  ACCURACY: -nan
PSCL4 TIMELY PREFETCHES:          0 LATE PREFETCHES: 0 DROPPED PREFETCHES: 0
PSCL4 PREFETCHES SAME FILL-ORIGIN LEVEL: 0 DIFFERENT FILL-ORIGIN LEVEL: 0

PSCL3 TOTAL     ACCESS:     117110  HIT:     116447  MISS:        663  HIT %:    99.4339  MISS %:   0.566134   MPKI: 0.01326
PSCL3 LOAD TRANSLATION ACCESS:      86619  HIT:      85956  MISS:        663  HIT %:    99.2346  MISS %:   0.765421   MPKI: 0.01326
PSCL3 TRANSLATION FROM L1D PREFETCHER ACCESS:      30491  HIT:      30491  MISS:          0  HIT %:        100  MISS %:          0   MPKI: 0
PSCL3prefetch_cycle_count: 0 prefetches_per_prefetch_cycle: -nan
PSCL3 PREFETCH  REQUESTED:          0  ISSUED:          0  USEFUL:          0  USELESS:          0
PSCL3 USEFUL LOAD PREFETCHES:          0 PREFETCH ISSUED TO LOWER LEVEL:          0  ACCURACY: -nan
PSCL3 TIMELY PREFETCHES:          0 LATE PREFETCHES: 0 DROPPED PREFETCHES: 0
PSCL3 PREFETCHES SAME FILL-ORIGIN LEVEL: 0 DIFFERENT FILL-ORIGIN LEVEL: 0

PSCL2 TOTAL     ACCESS:     112174  HIT:      83408  MISS:      28766  HIT %:    74.3559  MISS %:    25.6441   MPKI: 0.57532
PSCL2 LOAD TRANSLATION ACCESS:      90040  HIT:      61274  MISS:      28766  HIT %:     68.052  MISS %:     31.948   MPKI: 0.57532
PSCL2 TRANSLATION FROM L1D PREFETCHER ACCESS:      22134  HIT:      22134  MISS:          0  HIT %:        100  MISS %:          0   MPKI: 0
PSCL2prefetch_cycle_count: 0 prefetches_per_prefetch_cycle: -nan
PSCL2 PREFETCH  REQUESTED:          0  ISSUED:          0  USEFUL:          0  USELESS:          0
PSCL2 USEFUL LOAD PREFETCHES:          0 PREFETCH ISSUED TO LOWER LEVEL:          0  ACCURACY: -nan
PSCL2 TIMELY PREFETCHES:          0 LATE PREFETCHES: 0 DROPPED PREFETCHES: 0
PSCL2 PREFETCHES SAME FILL-ORIGIN LEVEL: 0 DIFFERENT FILL-ORIGIN LEVEL: 0

LLC TOTAL     ACCESS:    1104042  HIT:     979765  MISS:     124277  HIT %:    88.7435  MISS %:    11.2565   MPKI: 2.48554
LLC LOAD      ACCESS:     351975  HIT:     291090  MISS:      60885  HIT %:    82.7019  MISS %:    17.2981   MPKI: 1.2177
LLC RFO       ACCESS:      49044  HIT:      32343  MISS:      16701  HIT %:    65.9469  MISS %:    34.0531   MPKI: 0.33402
LLC PREFETCH  ACCESS:     532448  HIT:     491542  MISS:      40906  HIT %:    92.3174  MISS %:    7.68263   MPKI: 0.81812
LLC WRITEBACK ACCESS:     114606  HIT:     111603  MISS:       3003  HIT %:    97.3797  MISS %:    2.62028   MPKI: 0.06006
LLC LOAD TRANSLATION ACCESS:      47497  HIT:      44840  MISS:       2657  HIT %:     94.406  MISS %:    5.59404   MPKI: 0.05314
LLC TRANSLATION FROM L1D PREFETCHER ACCESS:       8472  HIT:       8347  MISS:        125  HIT %:    98.5246  MISS %:    1.47545   MPKI: 0.0025
LLCprefetch_cycle_count: 0 prefetches_per_prefetch_cycle: -nan
LLC PREFETCH  REQUESTED:          0  ISSUED:          0  USEFUL:       2560  USELESS:      38627
LLC USEFUL LOAD PREFETCHES:       2560 PREFETCH ISSUED TO LOWER LEVEL:      40906  ACCURACY: 6.25825
LLC TIMELY PREFETCHES:       2560 LATE PREFETCHES: 0 DROPPED PREFETCHES: 0
LLC PREFETCHES SAME FILL-ORIGIN LEVEL: 0 DIFFERENT FILL-ORIGIN LEVEL: 0
LLC AVERAGE MISS LATENCY: 157.74 cycles
LLC RQ	ACCESS:     456991	FORWARD:          0	MERGED:          0	TO_CACHE:     456988
LLC WQ	ACCESS:     114606	FORWARD:          3	MERGED:          0	TO_CACHE:     114606
LLC PQ	ACCESS:     532448	FORWARD:          0	MERGED:          0	TO_CACHE:     532448

LLC Dense regions hint to LLC: 0

RAW hits: 1025282
Loads Generated: 13463062
Loads sent to L1D: 12437778
Stores Generated: 4946117
Stores sent to L1D: 4946118
Major fault: 0 Minor fault: 7942
Allocated PAGES: 7942
I-Shadow cache 408 bytes
Touched + WorthPF tables 6144 bytes 
MMA filter 174 bytes 
FNL filter 272 bytes 
TOTAL PREFETCHER STORAGE SIZE: 25174 bytes
CPU 0 L1I next line prefetcher final stats

total_pref_operate_instances_l1: 9022991
dynamic_config_counter_instances_1: 7462220
dynamic_config_counter_instances_2: 100897
dynamic_config_counter_instances_3: 60735
dynamic_config_counter_instances_4: 43782
dynamic_config_counter_instances_5: 1355357
stream: 
stream:times selected: 4435781
stream:pref_filled: 1273256
stream:pref_useful: 33645
stream:pref_late: 22387
stream:misses: 826118
stream:misses_by_poll: 0

CS: 
CS:times selected: 1060874
CS:pref_filled: 256556
CS:pref_useful: 17548
CS:pref_late: 22811
CS:misses: 51598
CS:misses_by_poll: 1

CPLX: 
CPLX:times selected: 4093602
CPLX:pref_filled: 386704
CPLX:pref_useful: 42853
CPLX:pref_late: 56689
CPLX:misses: 871286
CPLX:misses_by_poll: 8

NL_L1: 
NL:times selected: 880070
NL:pref_filled: 235856
NL:pref_useful: 12466
NL:pref_late: 3148
NL:misses: 1187257
NL:misses_by_poll: 11

total selections: 10470327
total_filled: 669019
total_useful: 47780
total_late: 110894
total_polluted: 20
total_misses_after_warmup: 1989173
conflicts: 2025841
Degree Incremented Times: 0
Degree Decremented Times: 129669

L1 IP Table Write Accesses: 6472483
L1 IP Table Read Accesses: 4446642
L1 RST Write Accesses: 2205056
L1 RST Read Accesses: 4410112
L1 CSPT Write Accesses: 2205056
L1 CSPT Read Accesses: 2923768
L1 RR Filter Tag Write Accesses: 1728795
L1 RR Filter Tag Read Accesses: 67146907
L1 IP Table Tag Write Accesses: 9022991
L1 IP Table Tag Read Accesses: 9022991
L1 RST Tag Write Accesses: 0
L1 RST Tag Read Accesses: 18602794
L1 RR Filter Write Accesses: 0
L1 RR Filter Read Accesses: 2191432
test: 2258345

DRAM Statistics
 CHANNEL 0
 RQ ROW_BUFFER_HIT:      25508  ROW_BUFFER_MISS:      95761
 DBUS_CONGESTED:         85
 WQ ROW_BUFFER_HIT:       9917  ROW_BUFFER_MISS:      38778  FULL:          0

 AVG_CONGESTED_CYCLE: 4
 All warmup complete: 2
Channel 0 Bank busy for read cycles: 0
Channel 0 Bank busy for write cycles: 0
Channel 0
Rank 0
0banks busy for read cycles: 82444678
0banks busy for write cycles: 20634
1banks busy for read cycles: 6656819
1banks busy for write cycles: 2910447
2banks busy for read cycles: 1795648
2banks busy for write cycles: 872201
3banks busy for read cycles: 614735
3banks busy for write cycles: 354615
4banks busy for read cycles: 293144
4banks busy for write cycles: 194818
5banks busy for read cycles: 154839
5banks busy for write cycles: 143669
6banks busy for read cycles: 137912
6banks busy for write cycles: 111687
7banks busy for read cycles: 63325
7banks busy for write cycles: 102719
8banks busy for read cycles: 43539
8banks busy for write cycles: 179137

CPU 0 Branch Prediction Accuracy: 98.1603% MPKI: 3.89124 Average ROB Occupancy at Mispredict: 39.7552
Branch types
NOT_BRANCH: 39423760 78.8475%
BRANCH_DIRECT_JUMP: 551642 1.10328%
BRANCH_INDIRECT: 139368 0.278736%
BRANCH_CONDITIONAL: 7920859 15.8417%
BRANCH_DIRECT_CALL: 776072 1.55214%
BRANCH_INDIRECT_CALL: 194644 0.389288%
BRANCH_RETURN: 993311 1.98662%
BRANCH_OTHER: 0 0%

DRAM PAGES: 1048576
Allocated PAGES: 7942
