
*** ChampSim Multicore Out-of-Order Simulator ***

Warmup Instructions: 50000000
Simulation Instructions: 50000000
Number of CPUs: 1
LLC sets: 2048
LLC ways: 16
Off-chip DRAM Size: 4096 MB Channels: 1 Width: 64-bit Data Rate: 6400 MT/s
CPU 0 runs ../IPC-traces//server_009.champsimtrace.xz
.xz
NUM_OF_IPS_IN_CRITICAL_IP_TRAINING: 64
NUM_OF_CRITICAL_IP_TRAINING_TABLE_WAYS: 2
NUM_OF_CRITICAL_IP_TRAINING_TABLE_SETS: 32
WOBBLY_CRITICAL_IP_CACHE_SETS: 32
WOBBLY_CRITICAL_IP_CACHE_WAYS: 4
BTB has LRU replacement policy
ITLB has LRU replacement policy
DTLB has LRU replacement policy
STLB has LRU replacement policy
CPU 0 L1I next line prefetcher
L1I has LRU replacement policy
IP Table Entries: 64
L1D has LRU replacement policy
Initialize SRRIP state for L2C
Initialize DRRIP state for LLC
Heartbeat CPU 0 instructions: 10000001 cycles: 2760400 heartbeat IPC: 3.62266 cumulative IPC: 3.62266 (Simulation time: 0 hr 3 min 1 sec) 
Heartbeat CPU 0 instructions: 20000002 cycles: 5513819 heartbeat IPC: 3.63185 cumulative IPC: 3.62725 (Simulation time: 0 hr 6 min 2 sec) 
Heartbeat CPU 0 instructions: 30000003 cycles: 8269855 heartbeat IPC: 3.6284 cumulative IPC: 3.62763 (Simulation time: 0 hr 8 min 59 sec) 
Heartbeat CPU 0 instructions: 40000003 cycles: 11028440 heartbeat IPC: 3.62505 cumulative IPC: 3.62699 (Simulation time: 0 hr 11 min 59 sec) 
Heartbeat CPU 0 instructions: 50000003 cycles: 13810043 heartbeat IPC: 3.59505 cumulative IPC: 3.62055 (Simulation time: 0 hr 15 min 0 sec) 

Warmup complete CPU 0 instructions: 50000003 cycles: 13810043 (Simulation time: 0 hr 15 min 0 sec) 

% increase in all ip prefetch 403.585
% increase in all ip prefetch -2.18434
Heartbeat CPU 0 instructions: 60000001 cycles: 35725662 heartbeat IPC: 0.456295 cumulative IPC: 0.456295 (Simulation time: 0 hr 19 min 11 sec) 
Heartbeat CPU 0 instructions: 70000001 cycles: 62879818 heartbeat IPC: 0.368268 cumulative IPC: 0.407583 (Simulation time: 0 hr 24 min 3 sec) 
Heartbeat CPU 0 instructions: 80000000 cycles: 76984294 heartbeat IPC: 0.708995 cumulative IPC: 0.474877 (Simulation time: 0 hr 27 min 3 sec) 
Heartbeat CPU 0 instructions: 90000001 cycles: 91262561 heartbeat IPC: 0.700365 cumulative IPC: 0.516445 (Simulation time: 0 hr 29 min 54 sec) 
Heartbeat CPU 0 instructions: 100000003 cycles: 105338750 heartbeat IPC: 0.71042 cumulative IPC: 0.546277 (Simulation time: 0 hr 34 min 43 sec) 
Finished CPU 0 instructions: 50000000 cycles: 91528707 cumulative IPC: 0.546277 (Simulation time: 0 hr 34 min 43 sec) 

ChampSim completed all CPUs

Region of Interest Statistics

CPU 0 cumulative IPC: 0.546277 instructions: 50000000 cycles: 91528707

CPU 0 Average Load ROB stall cycles: 2.93251e+07
CPU 0 Fraction of times ROB stalled by Loads: 51.5283
CPU 0 Percentage of Load stall cycles in Total stall cycles: 2.83736e+08
Issued all: 35084735
Issued LT all: 29533457
rob_not_full_when_issued_lt_all: 21778809
Issued LT one: 23696225
rob_not_full_when_issued_lt_one: 16468259
 Total stall cycles: 77710946
 Total load stall cycles: 220494073969759
CPU 0 NUM of IPS identified critical: 0
CPU 0 Num of Load IPs stalling ROB: 24619
Threshold modification factor: -1
Max PIST entries: 64
Min PIST entries: 0
Avg PIST entries: 31.71
Trouble in retire width: 0.92454
MaC = Marked as critical.
lt_50_percent_before_Mac: 0
gt_90_percent_before_Mac: 0
gt_75_percent_before_Mac: 0
gt_50_percent_before_Mac: 0
stall_proportion_bin_same_before_after: 0
stall_proportion_bin_lower_before_after: 0
stall_proportion_bin_upper_before_after: 0
average_stall_proportion_before: -nan
average_stall_proportion_after: -nan
Critical IP stalls, total frequency: 0
Non-critical IP stalls, total frequency: 3874391
Total Freq all stalling IPs: 3874391
stat_90_percent_critical_ip_stalls_freq: 3487036
stat_90_percent_non_critical_ip_stalls_freq: 387355
Critical_IP_ROB_Stalls_Bucket_0: 0
Non-critical_IP_ROB_Stalls_Bucket_0: 1163945
Critical_IP_ROB_Stalls_Bucket_1: 0
Non-critical_IP_ROB_Stalls_Bucket_1: 808593
Critical_IP_ROB_Stalls_Bucket_2: 0
Non-critical_IP_ROB_Stalls_Bucket_2: 445413
Critical_IP_ROB_Stalls_Bucket_3: 0
Non-critical_IP_ROB_Stalls_Bucket_3: 313976
Critical_IP_ROB_Stalls_Bucket_4: 0
Non-critical_IP_ROB_Stalls_Bucket_4: 255571
Critical_IP_ROB_Stalls_Bucket_5: 0
Non-critical_IP_ROB_Stalls_Bucket_5: 268088
Critical_IP_ROB_Stalls_Bucket_6: 0
Non-critical_IP_ROB_Stalls_Bucket_6: 618805
0 => IPs accounting for >50 percent of stalls, 1 => 55, 2 => 60, 3 => 65 and so on till 90.
percent50: 50.1777 num IPs:  36
percent55: 55.1414 num IPs: 57
percent60: 60.0052 num IPs: 81
percent65: 65.0649 num IPs: 122
percent70: 70.0217 num IPs: 216
percent75: 75.0067 num IPs: 429
percent80: 80.009 num IPs: 770
percent85: 85.0046 num IPs: 1416
percent90: 90.0021 num IPs: 2900
Critical_ROB_Stalls_Percent_0_Bucket_0: 216309
Non-critical_ROB_Stalls_Percent_0_Bucket_0: 947636
Critical_ROB_Stalls_Percent_0_Bucket_1: 200974
Non-critical_ROB_Stalls_Percent_0_Bucket_1: 607619
Critical_ROB_Stalls_Percent_0_Bucket_2: 242940
Non-critical_ROB_Stalls_Percent_0_Bucket_2: 202473
Critical_ROB_Stalls_Percent_0_Bucket_3: 241525
Non-critical_ROB_Stalls_Percent_0_Bucket_3: 72451
Critical_ROB_Stalls_Percent_0_Bucket_4: 216888
Non-critical_ROB_Stalls_Percent_0_Bucket_4: 38683
Critical_ROB_Stalls_Percent_0_Bucket_5: 244695
Non-critical_ROB_Stalls_Percent_0_Bucket_5: 23393
Critical_ROB_Stalls_Percent_0_Bucket_6: 580749
Non-critical_ROB_Stalls_Percent_0_Bucket_6: 38056
Critical_ROB_Stalls_Percent_1_Bucket_0: 297249
Non-critical_ROB_Stalls_Percent_1_Bucket_0: 866696
Critical_ROB_Stalls_Percent_1_Bucket_1: 292394
Non-critical_ROB_Stalls_Percent_1_Bucket_1: 516199
Critical_ROB_Stalls_Percent_1_Bucket_2: 262334
Non-critical_ROB_Stalls_Percent_1_Bucket_2: 183079
Critical_ROB_Stalls_Percent_1_Bucket_3: 241874
Non-critical_ROB_Stalls_Percent_1_Bucket_3: 72102
Critical_ROB_Stalls_Percent_1_Bucket_4: 217088
Non-critical_ROB_Stalls_Percent_1_Bucket_4: 38483
Critical_ROB_Stalls_Percent_1_Bucket_5: 244706
Non-critical_ROB_Stalls_Percent_1_Bucket_5: 23382
Critical_ROB_Stalls_Percent_1_Bucket_6: 580749
Non-critical_ROB_Stalls_Percent_1_Bucket_6: 38056
Critical_ROB_Stalls_Percent_2_Bucket_0: 410572
Non-critical_ROB_Stalls_Percent_2_Bucket_0: 753373
Critical_ROB_Stalls_Percent_2_Bucket_1: 345086
Non-critical_ROB_Stalls_Percent_2_Bucket_1: 463507
Critical_ROB_Stalls_Percent_2_Bucket_2: 276999
Non-critical_ROB_Stalls_Percent_2_Bucket_2: 168414
Critical_ROB_Stalls_Percent_2_Bucket_3: 243932
Non-critical_ROB_Stalls_Percent_2_Bucket_3: 70044
Critical_ROB_Stalls_Percent_2_Bucket_4: 218350
Non-critical_ROB_Stalls_Percent_2_Bucket_4: 37221
Critical_ROB_Stalls_Percent_2_Bucket_5: 245824
Non-critical_ROB_Stalls_Percent_2_Bucket_5: 22264
Critical_ROB_Stalls_Percent_2_Bucket_6: 584073
Non-critical_ROB_Stalls_Percent_2_Bucket_6: 34732
Critical_ROB_Stalls_Percent_3_Bucket_0: 465764
Non-critical_ROB_Stalls_Percent_3_Bucket_0: 698181
Critical_ROB_Stalls_Percent_3_Bucket_1: 442247
Non-critical_ROB_Stalls_Percent_3_Bucket_1: 366346
Critical_ROB_Stalls_Percent_3_Bucket_2: 304286
Non-critical_ROB_Stalls_Percent_3_Bucket_2: 141127
Critical_ROB_Stalls_Percent_3_Bucket_3: 252479
Non-critical_ROB_Stalls_Percent_3_Bucket_3: 61497
Critical_ROB_Stalls_Percent_3_Bucket_4: 221568
Non-critical_ROB_Stalls_Percent_3_Bucket_4: 34003
Critical_ROB_Stalls_Percent_3_Bucket_5: 247666
Non-critical_ROB_Stalls_Percent_3_Bucket_5: 20422
Critical_ROB_Stalls_Percent_3_Bucket_6: 586859
Non-critical_ROB_Stalls_Percent_3_Bucket_6: 31946
Critical_ROB_Stalls_Percent_4_Bucket_0: 544427
Non-critical_ROB_Stalls_Percent_4_Bucket_0: 619518
Critical_ROB_Stalls_Percent_4_Bucket_1: 505062
Non-critical_ROB_Stalls_Percent_4_Bucket_1: 303531
Critical_ROB_Stalls_Percent_4_Bucket_2: 330176
Non-critical_ROB_Stalls_Percent_4_Bucket_2: 115237
Critical_ROB_Stalls_Percent_4_Bucket_3: 261432
Non-critical_ROB_Stalls_Percent_4_Bucket_3: 52544
Critical_ROB_Stalls_Percent_4_Bucket_4: 227174
Non-critical_ROB_Stalls_Percent_4_Bucket_4: 28397
Critical_ROB_Stalls_Percent_4_Bucket_5: 250312
Non-critical_ROB_Stalls_Percent_4_Bucket_5: 17776
Critical_ROB_Stalls_Percent_4_Bucket_6: 594332
Non-critical_ROB_Stalls_Percent_4_Bucket_6: 24473
Critical_ROB_Stalls_Percent_5_Bucket_0: 626291
Non-critical_ROB_Stalls_Percent_5_Bucket_0: 537654
Critical_ROB_Stalls_Percent_5_Bucket_1: 567371
Non-critical_ROB_Stalls_Percent_5_Bucket_1: 241222
Critical_ROB_Stalls_Percent_5_Bucket_2: 355228
Non-critical_ROB_Stalls_Percent_5_Bucket_2: 90185
Critical_ROB_Stalls_Percent_5_Bucket_3: 271665
Non-critical_ROB_Stalls_Percent_5_Bucket_3: 42311
Critical_ROB_Stalls_Percent_5_Bucket_4: 232411
Non-critical_ROB_Stalls_Percent_5_Bucket_4: 23160
Critical_ROB_Stalls_Percent_5_Bucket_5: 254089
Non-critical_ROB_Stalls_Percent_5_Bucket_5: 13999
Critical_ROB_Stalls_Percent_5_Bucket_6: 599002
Non-critical_ROB_Stalls_Percent_5_Bucket_6: 19803
Critical_ROB_Stalls_Percent_6_Bucket_0: 714687
Non-critical_ROB_Stalls_Percent_6_Bucket_0: 449258
Critical_ROB_Stalls_Percent_6_Bucket_1: 635194
Non-critical_ROB_Stalls_Percent_6_Bucket_1: 173399
Critical_ROB_Stalls_Percent_6_Bucket_2: 372931
Non-critical_ROB_Stalls_Percent_6_Bucket_2: 72482
Critical_ROB_Stalls_Percent_6_Bucket_3: 278960
Non-critical_ROB_Stalls_Percent_6_Bucket_3: 35016
Critical_ROB_Stalls_Percent_6_Bucket_4: 237359
Non-critical_ROB_Stalls_Percent_6_Bucket_4: 18212
Critical_ROB_Stalls_Percent_6_Bucket_5: 257723
Non-critical_ROB_Stalls_Percent_6_Bucket_5: 10365
Critical_ROB_Stalls_Percent_6_Bucket_6: 603010
Non-critical_ROB_Stalls_Percent_6_Bucket_6: 15795
Critical_ROB_Stalls_Percent_7_Bucket_0: 822030
Non-critical_ROB_Stalls_Percent_7_Bucket_0: 341915
Critical_ROB_Stalls_Percent_7_Bucket_1: 685253
Non-critical_ROB_Stalls_Percent_7_Bucket_1: 123340
Critical_ROB_Stalls_Percent_7_Bucket_2: 390716
Non-critical_ROB_Stalls_Percent_7_Bucket_2: 54697
Critical_ROB_Stalls_Percent_7_Bucket_3: 287021
Non-critical_ROB_Stalls_Percent_7_Bucket_3: 26955
Critical_ROB_Stalls_Percent_7_Bucket_4: 241716
Non-critical_ROB_Stalls_Percent_7_Bucket_4: 13855
Critical_ROB_Stalls_Percent_7_Bucket_5: 261066
Non-critical_ROB_Stalls_Percent_7_Bucket_5: 7022
Critical_ROB_Stalls_Percent_7_Bucket_6: 605609
Non-critical_ROB_Stalls_Percent_7_Bucket_6: 13196
Critical_ROB_Stalls_Percent_8_Bucket_0: 926203
Non-critical_ROB_Stalls_Percent_8_Bucket_0: 237742
Critical_ROB_Stalls_Percent_8_Bucket_1: 734299
Non-critical_ROB_Stalls_Percent_8_Bucket_1: 74294
Critical_ROB_Stalls_Percent_8_Bucket_2: 410369
Non-critical_ROB_Stalls_Percent_8_Bucket_2: 35044
Critical_ROB_Stalls_Percent_8_Bucket_3: 296121
Non-critical_ROB_Stalls_Percent_8_Bucket_3: 17855
Critical_ROB_Stalls_Percent_8_Bucket_4: 247301
Non-critical_ROB_Stalls_Percent_8_Bucket_4: 8270
Critical_ROB_Stalls_Percent_8_Bucket_5: 263394
Non-critical_ROB_Stalls_Percent_8_Bucket_5: 4694
Critical_ROB_Stalls_Percent_8_Bucket_6: 609349
Non-critical_ROB_Stalls_Percent_8_Bucket_6: 9456
Average ROB occupancy Load Stall Begin: 132.038
Average ROB occupancy Load Stall End: 140.181
Min ROB occupancy Load Stall Begin: 1
Max ROB occupancy Load Stall Begin: 352
Min ROB occupancy Load Stall End: 1
Max ROB occupancy Load Stall End: 352
Average ROB occupancy Critical Load Stall Begin: -nan
Average ROB occupancy Critical Load Stall End: -nan
Min ROB occupancy Critical Load Stall Begin: 400
Max ROB occupancy Critical Load Stall Begin: 0
Min ROB occupancy Critical Load Stall End: 400
Max ROB occupancy Critical Load Stall End: 0
 ROB Load Stall Begin Bucket Count 0: 1454285
 ROB Load Stall End Bucket Count 0: 1163945
 ROB Critical Load Stall Begin Bucket Count 0: 0
 ROB Critical Load Stall End Bucket Count 0: 0
 ROB Load Stall Begin Bucket Count 1: 633723
 ROB Load Stall End Bucket Count 1: 808593
 ROB Critical Load Stall Begin Bucket Count 1: 0
 ROB Critical Load Stall End Bucket Count 1: 0
 ROB Load Stall Begin Bucket Count 2: 389904
 ROB Load Stall End Bucket Count 2: 445413
 ROB Critical Load Stall Begin Bucket Count 2: 0
 ROB Critical Load Stall End Bucket Count 2: 0
 ROB Load Stall Begin Bucket Count 3: 288374
 ROB Load Stall End Bucket Count 3: 313976
 ROB Critical Load Stall Begin Bucket Count 3: 0
 ROB Critical Load Stall End Bucket Count 3: 0
 ROB Load Stall Begin Bucket Count 4: 248521
 ROB Load Stall End Bucket Count 4: 255571
 ROB Critical Load Stall Begin Bucket Count 4: 0
 ROB Critical Load Stall End Bucket Count 4: 0
 ROB Load Stall Begin Bucket Count 5: 260588
 ROB Load Stall End Bucket Count 5: 268088
 ROB Critical Load Stall Begin Bucket Count 5: 0
 ROB Critical Load Stall End Bucket Count 5: 0
 ROB Load Stall Begin Bucket Count 6: 598996
 ROB Load Stall End Bucket Count 6: 618805
 ROB Critical Load Stall Begin Bucket Count 6: 0
 ROB Critical Load Stall End Bucket Count 6: 0
PIST Tag Read Accesses: 2580486
PIST Read Accesses: 1290243
PIST Tag Write Accesses: 2580486
PIST Write Accesses: 1290243
Criticality detector called times: 2168462
Max global_stall_cycles_count: 3048803
Threshold Modified: 1 times, factor: -1
Sturdy critical IP cache stats: 
 Unused entries: 0
CIC Tag Read Accesses: 0
CIC Read Accesses: 0
CIC Tag Write Accesses: 0
CIC Write Accesses: 0
Wobbly critical IP cache stats: 
 Unused entries: 91
CIC Tag Read Accesses: 86603045
CIC Read Accesses: 0
CIC Tag Write Accesses: 60787
CIC Write Accesses: 0
ITLB TOTAL     ACCESS:    9846915  HIT:    9654562  MISS:     192353  HIT %:    98.0466  MISS %:    1.95343   MPKI: 3.84706
ITLB LOAD TRANSLATION ACCESS:    8838227  HIT:    8778136  MISS:      60091  HIT %:    99.3201  MISS %:   0.679899   MPKI: 1.20182
ITLB TRANSLATION FROM L1D PREFETCHER ACCESS:    1008688  HIT:     876426  MISS:     132262  HIT %:    86.8877  MISS %:    13.1123   MPKI: 2.64524
ITLB PREFETCH  REQUESTED:          0  ISSUED:          0  USEFUL:     107859  USELESS:      24394
ITLB USEFUL LOAD PREFETCHES:     107859 PREFETCH ISSUED TO LOWER LEVEL:          0  ACCURACY: inf
ITLB TIMELY PREFETCHES:     107859 LATE PREFETCHES: 735 DROPPED PREFETCHES: 10265
ITLB PREFETCHES SAME FILL-ORIGIN LEVEL: 0 DIFFERENT FILL-ORIGIN LEVEL: 0
ITLB AVERAGE MISS LATENCY: 266712 cycles
ITLB RQ	ACCESS:   12971816	FORWARD:          0	MERGED:    3087102	TO_CACHE:    9884714

DTLB TOTAL     ACCESS:   10471779  HIT:    8725676  MISS:    1746103  HIT %:    83.3256  MISS %:    16.6744   MPKI: 34.9221
DTLB LOAD TRANSLATION ACCESS:   10471779  HIT:    8725676  MISS:    1746103  HIT %:    83.3256  MISS %:    16.6744   MPKI: 34.9221
DTLB PREFETCH  REQUESTED:          0  ISSUED:          0  USEFUL:          0  USELESS:          0
DTLB USEFUL LOAD PREFETCHES:          0 PREFETCH ISSUED TO LOWER LEVEL:          0  ACCURACY: -nan
DTLB TIMELY PREFETCHES:          0 LATE PREFETCHES: 0 DROPPED PREFETCHES: 0
DTLB PREFETCHES SAME FILL-ORIGIN LEVEL: 0 DIFFERENT FILL-ORIGIN LEVEL: 0
DTLB AVERAGE MISS LATENCY: 10.8602 cycles
DTLB RQ	ACCESS:   13783343	FORWARD:          0	MERGED:    3273195	TO_CACHE:   10510148

STLB TOTAL     ACCESS:    3372931  HIT:    3274773  MISS:      98158  HIT %:    97.0898  MISS %:    2.91017   MPKI: 1.96316
STLB LOAD TRANSLATION ACCESS:    1805459  HIT:    1729605  MISS:      75854  HIT %:    95.7986  MISS %:    4.20137   MPKI: 1.51708
STLB TRANSLATION FROM L1D PREFETCHER ACCESS:    1567472  HIT:    1545168  MISS:      22304  HIT %:    98.5771  MISS %:    1.42293   MPKI: 0.44608
STLB PREFETCH  REQUESTED:          0  ISSUED:          0  USEFUL:      12755  USELESS:       9568
STLB USEFUL LOAD PREFETCHES:      12755 PREFETCH ISSUED TO LOWER LEVEL:          0  ACCURACY: inf
STLB TIMELY PREFETCHES:      12755 LATE PREFETCHES: 0 DROPPED PREFETCHES: 10265
STLB PREFETCHES SAME FILL-ORIGIN LEVEL: 0 DIFFERENT FILL-ORIGIN LEVEL: 0
STLB AVERAGE MISS LATENCY: 46.6859 cycles
STLB RQ	ACCESS:    4973238	FORWARD:          0	MERGED:    1590042	TO_CACHE:    3383196

STLB Hit, L1D data hit: 0
STLB Hit, L2C data hit: 0
STLB Hit, LLC data hit: 0
STLB Hit, LLC data miss: 0
STLB STLB hints to L2: 0
L1D TOTAL     ACCESS:   16579134  HIT:   12584171  MISS:    3994963  HIT %:    75.9037  MISS %:    24.0963   MPKI: 79.8993
L1D LOAD      ACCESS:    9014663  HIT:    6866389  MISS:    2148274  HIT %:    76.1691  MISS %:    23.8309   MPKI: 42.9655
L1D RFO       ACCESS:    4595138  HIT:    4483484  MISS:     111654  HIT %:    97.5702  MISS %:    2.42983   MPKI: 2.23308
L1D PREFETCH  ACCESS:    2969333  HIT:    1234298  MISS:    1735035  HIT %:    41.5682  MISS %:    58.4318   MPKI: 34.7007
L1D PREFETCH  REQUESTED:    6049047  ISSUED:    6049035  USEFUL:     140968  USELESS:    1594102
L1D USEFUL LOAD PREFETCHES:     140968 PREFETCH ISSUED TO LOWER LEVEL:    1779522  ACCURACY: 7.92168
L1D TIMELY PREFETCHES:     140968 LATE PREFETCHES: 44487 DROPPED PREFETCHES: 0
L1D PREFETCHES SAME FILL-ORIGIN LEVEL: 1779522 DIFFERENT FILL-ORIGIN LEVEL: 0
L1D AVERAGE MISS LATENCY: 447246 cycles
L1D RQ	ACCESS:   12387094	FORWARD:          0	MERGED:    3262927	TO_CACHE:    9047798
L1D WQ	ACCESS:    4834418	FORWARD:      76370	MERGED:      98873	TO_CACHE:    4735545
L1D PQ	ACCESS:    3024518	FORWARD:          0	MERGED:          0	TO_CACHE:    3024517

L1D UNIQUE REGIONS ACCESSED: 0
L1D REGIONS CONFLICTS: 0
L1D Cross Page Prefetch Requests: 0
L1D Same Page Prefetch Requests: 3141892
L1D ROI Sum of L1D PQ occupancy: 39665486
L1D PREFETCHES PUSHED FROM L2C: 0
L1I TOTAL     ACCESS:   12826593  HIT:   11213082  MISS:    1613511  HIT %:    87.4206  MISS %:    12.5794   MPKI: 32.2702
L1I LOAD      ACCESS:   10511037  HIT:   10294226  MISS:     216811  HIT %:    97.9373  MISS %:     2.0627   MPKI: 4.33622
L1I PREFETCH  ACCESS:    2315556  HIT:     918856  MISS:    1396700  HIT %:    39.6819  MISS %:    60.3181   MPKI: 27.934
L1I PREFETCH  REQUESTED:    2529300  ISSUED:    2523068  USEFUL:     920207  USELESS:     476488
L1I USEFUL LOAD PREFETCHES:     920207 PREFETCH ISSUED TO LOWER LEVEL:    1424620  ACCURACY: 64.5932
L1I TIMELY PREFETCHES:     920207 LATE PREFETCHES: 27920 DROPPED PREFETCHES: 31761
L1I PREFETCHES SAME FILL-ORIGIN LEVEL: 1424620 DIFFERENT FILL-ORIGIN LEVEL: 0
L1I AVERAGE MISS LATENCY: 1.22359e+06 cycles
L1I RQ	ACCESS:   15179919	FORWARD:          0	MERGED:    4646715	TO_CACHE:   10533204
L1I PQ	ACCESS:    2523068	FORWARD:          0	MERGED:      84456	TO_CACHE:    2438612

BTB TOTAL     ACCESS:    6346923  HIT:    5659258  MISS:     687665  HIT %:    89.1654  MISS %:    10.8346   MPKI: 13.7533
BTB BRANCH_DIRECT_JUMP	ACCESS:     445350  HIT:     394979  MISS:      50371
BTB BRANCH_INDIRECT	ACCESS:     131150  HIT:     103590  MISS:      27560
BTB BRANCH_CONDITIONAL	ACCESS:    3934011  HIT:    3727039  MISS:     206972
BTB BRANCH_DIRECT_CALL	ACCESS:     732485  HIT:     637543  MISS:      94942
BTB BRANCH_INDIRECT_CALL	ACCESS:     172369  HIT:     162115  MISS:      10254
BTB BRANCH_RETURN	ACCESS:     931558  HIT:     633992  MISS:     297566
BTB BRANCH_OTHER ACCESS:          0  HIT:          0  MISS:          0

L2C TOTAL     ACCESS:    5993896  HIT:    5030023  MISS:     963873  HIT %:    83.9191  MISS %:    16.0809   MPKI: 19.2775
L2C LOAD      ACCESS:    2292665  HIT:    1954537  MISS:     338128  HIT %:    85.2517  MISS %:    14.7483   MPKI: 6.76256
L2C DATA LOAD MPKI: 5.18382
L2C INSTRUCTION LOAD MPKI: 1.57874
L2C RFO       ACCESS:     111653  HIT:      71987  MISS:      39666  HIT %:    64.4739  MISS %:    35.5261   MPKI: 0.79332
L2C PREFETCH  ACCESS:    3204142  HIT:    2687130  MISS:     517012  HIT %:    83.8643  MISS %:    16.1357   MPKI: 10.3402
L2C DATA PREFETCH MPKI: 0.09496
L2C INSTRUCTION PREFETCH MPKI: 10.2453
L2C WRITEBACK ACCESS:     242474  HIT:     224229  MISS:      18245  HIT %:    92.4755  MISS %:    7.52452   MPKI: 0.3649
L2C LOAD TRANSLATION ACCESS:      99589  HIT:      56436  MISS:      43153  HIT %:    56.6689  MISS %:    43.3311   MPKI: 0.86306
L2C TRANSLATION FROM L1D PREFETCHER ACCESS:      43373  HIT:      35704  MISS:       7669  HIT %:    82.3185  MISS %:    17.6815   MPKI: 0.15338
L2C PREFETCH  REQUESTED:          0  ISSUED:          0  USEFUL:      14066  USELESS:     510113
L2C USEFUL LOAD PREFETCHES:      14066 PREFETCH ISSUED TO LOWER LEVEL:     517012  ACCURACY: 2.72063
L2C TIMELY PREFETCHES:      14066 LATE PREFETCHES: 0 DROPPED PREFETCHES: 0
L2C PREFETCHES SAME FILL-ORIGIN LEVEL: 0 DIFFERENT FILL-ORIGIN LEVEL: 0
L2C AVERAGE MISS LATENCY: 40.2993 cycles
L2C RQ	ACCESS:    2547294	FORWARD:          0	MERGED:          0	TO_CACHE:    2547280
L2C WQ	ACCESS:     242474	FORWARD:         14	MERGED:          0	TO_CACHE:     242474
L2C PQ	ACCESS:    3204142	FORWARD:          0	MERGED:          0	TO_CACHE:    3204142

L2C Instructions Evicting Data 198113
L2C Translations Evicting Data 16530
L2C Data Evicting Data 101648
L2C Instructions Evicting Instructions 361559
L2C Translations Evicting Instructions 31940
L2C Data Evicting Instructions 186112
L2C Instructions Evicting Translations 31529
L2C Translations Evicting Translations 2352
L2C Data Evicting Translations 15845
L2C Dense regions hint from L2: 0
PSCL5 TOTAL     ACCESS:     108423  HIT:     108423  MISS:          0  HIT %:        100  MISS %:          0   MPKI: 0
PSCL5 LOAD TRANSLATION ACCESS:      75854  HIT:      75854  MISS:          0  HIT %:        100  MISS %:          0   MPKI: 0
PSCL5 TRANSLATION FROM L1D PREFETCHER ACCESS:      32569  HIT:      32569  MISS:          0  HIT %:        100  MISS %:          0   MPKI: 0
PSCL5 PREFETCH  REQUESTED:          0  ISSUED:          0  USEFUL:          0  USELESS:          0
PSCL5 USEFUL LOAD PREFETCHES:          0 PREFETCH ISSUED TO LOWER LEVEL:          0  ACCURACY: -nan
PSCL5 TIMELY PREFETCHES:          0 LATE PREFETCHES: 0 DROPPED PREFETCHES: 0
PSCL5 PREFETCHES SAME FILL-ORIGIN LEVEL: 0 DIFFERENT FILL-ORIGIN LEVEL: 0

PSCL4 TOTAL     ACCESS:      98068  HIT:      97787  MISS:        281  HIT %:    99.7135  MISS %:   0.286536   MPKI: 0.00562
PSCL4 LOAD TRANSLATION ACCESS:      69201  HIT:      68920  MISS:        281  HIT %:    99.5939  MISS %:   0.406063   MPKI: 0.00562
PSCL4 TRANSLATION FROM L1D PREFETCHER ACCESS:      28867  HIT:      28867  MISS:          0  HIT %:        100  MISS %:          0   MPKI: 0
PSCL4 PREFETCH  REQUESTED:          0  ISSUED:          0  USEFUL:          0  USELESS:          0
PSCL4 USEFUL LOAD PREFETCHES:          0 PREFETCH ISSUED TO LOWER LEVEL:          0  ACCURACY: -nan
PSCL4 TIMELY PREFETCHES:          0 LATE PREFETCHES: 0 DROPPED PREFETCHES: 0
PSCL4 PREFETCHES SAME FILL-ORIGIN LEVEL: 0 DIFFERENT FILL-ORIGIN LEVEL: 0

PSCL3 TOTAL     ACCESS:     107043  HIT:     106240  MISS:        803  HIT %:    99.2498  MISS %:   0.750166   MPKI: 0.01606
PSCL3 LOAD TRANSLATION ACCESS:      75520  HIT:      74717  MISS:        803  HIT %:    98.9367  MISS %:    1.06329   MPKI: 0.01606
PSCL3 TRANSLATION FROM L1D PREFETCHER ACCESS:      31523  HIT:      31523  MISS:          0  HIT %:        100  MISS %:          0   MPKI: 0
PSCL3 PREFETCH  REQUESTED:          0  ISSUED:          0  USEFUL:          0  USELESS:          0
PSCL3 USEFUL LOAD PREFETCHES:          0 PREFETCH ISSUED TO LOWER LEVEL:          0  ACCURACY: -nan
PSCL3 TIMELY PREFETCHES:          0 LATE PREFETCHES: 0 DROPPED PREFETCHES: 0
PSCL3 PREFETCHES SAME FILL-ORIGIN LEVEL: 0 DIFFERENT FILL-ORIGIN LEVEL: 0

PSCL2 TOTAL     ACCESS:     101192  HIT:      75415  MISS:      25777  HIT %:    74.5266  MISS %:    25.4734   MPKI: 0.51554
PSCL2 LOAD TRANSLATION ACCESS:      78694  HIT:      52917  MISS:      25777  HIT %:     67.244  MISS %:     32.756   MPKI: 0.51554
PSCL2 TRANSLATION FROM L1D PREFETCHER ACCESS:      22498  HIT:      22498  MISS:          0  HIT %:        100  MISS %:          0   MPKI: 0
PSCL2 PREFETCH  REQUESTED:          0  ISSUED:          0  USEFUL:          0  USELESS:          0
PSCL2 USEFUL LOAD PREFETCHES:          0 PREFETCH ISSUED TO LOWER LEVEL:          0  ACCURACY: -nan
PSCL2 TIMELY PREFETCHES:          0 LATE PREFETCHES: 0 DROPPED PREFETCHES: 0
PSCL2 PREFETCHES SAME FILL-ORIGIN LEVEL: 0 DIFFERENT FILL-ORIGIN LEVEL: 0

LLC TOTAL     ACCESS:    1053632  HIT:     987195  MISS:      66437  HIT %:    93.6945  MISS %:    6.30552   MPKI: 1.32874
LLC LOAD      ACCESS:     338124  HIT:     290754  MISS:      47370  HIT %:    85.9903  MISS %:    14.0097   MPKI: 0.9474
LLC RFO       ACCESS:      39666  HIT:      29180  MISS:      10486  HIT %:    73.5643  MISS %:    26.4357   MPKI: 0.20972
LLC PREFETCH  ACCESS:     517012  HIT:     510494  MISS:       6518  HIT %:    98.7393  MISS %:    1.26071   MPKI: 0.13036
LLC WRITEBACK ACCESS:     108008  HIT:     107222  MISS:        786  HIT %:    99.2723  MISS %:   0.727724   MPKI: 0.01572
LLC LOAD TRANSLATION ACCESS:      43153  HIT:      41917  MISS:       1236  HIT %:    97.1358  MISS %:    2.86423   MPKI: 0.02472
LLC TRANSLATION FROM L1D PREFETCHER ACCESS:       7669  HIT:       7628  MISS:         41  HIT %:    99.4654  MISS %:    0.53462   MPKI: 0.00082
LLC PREFETCH  REQUESTED:          0  ISSUED:          0  USEFUL:        694  USELESS:       8079
LLC USEFUL LOAD PREFETCHES:        694 PREFETCH ISSUED TO LOWER LEVEL:       6518  ACCURACY: 10.6474
LLC TIMELY PREFETCHES:        694 LATE PREFETCHES: 0 DROPPED PREFETCHES: 0
LLC PREFETCHES SAME FILL-ORIGIN LEVEL: 0 DIFFERENT FILL-ORIGIN LEVEL: 0
LLC AVERAGE MISS LATENCY: 156.653 cycles
LLC RQ	ACCESS:     428616	FORWARD:          0	MERGED:          0	TO_CACHE:     428612
LLC WQ	ACCESS:     108008	FORWARD:          4	MERGED:          0	TO_CACHE:     108008
LLC PQ	ACCESS:     517012	FORWARD:          0	MERGED:          0	TO_CACHE:     517012

LLC Dense regions hint to LLC: 0

RAW hits: 988589
Loads Generated: 13375685
Loads sent to L1D: 12387094
Stores Generated: 4834417
Stores sent to L1D: 4834418
Major fault: 0 Minor fault: 6724
Allocated PAGES: 6724
I-Shadow cache 408 bytes
Touched + WorthPF tables 6144 bytes 
MMA filter 174 bytes 
FNL filter 272 bytes 
TOTAL PREFETCHER STORAGE SIZE: 25174 bytes
CPU 0 L1I next line prefetcher final stats

stream: 
stream:times selected: 2308786
stream:pref_filled: 1114671
stream:pref_useful: 33047
stream:pref_late: 1452
stream:misses: 780988
stream:misses_by_poll: 0

CS: 
CS:times selected: 604724
CS:pref_filled: 280825
CS:pref_useful: 59635
CS:pref_late: 1331
CS:misses: 53429
CS:misses_by_poll: 0

CPLX: 
CPLX:times selected: 2061895
CPLX:pref_filled: 397910
CPLX:pref_useful: 69756
CPLX:pref_late: 340
CPLX:misses: 747172
CPLX:misses_by_poll: 147

NL_L1: 
NL:times selected: 3180
NL:pref_filled: 381
NL:pref_useful: 51
NL:pref_late: 8
NL:misses: 121
NL:misses_by_poll: 0

total selections: 4978585
total_filled: 1735035
total_useful: 140968
total_late: 46751
total_polluted: 147
total_misses_after_warmup: 2181408
conflicts: 2831438
Degree Incremented Times: 89021
Degree Decremented Times: 154209

L1 IP Table Write Accesses: 5954312
L1 IP Table Read Accesses: 3122874
L1 RST Write Accesses: 2160272
L1 RST Read Accesses: 4320544
L1 CSPT Write Accesses: 2160272
L1 CSPT Read Accesses: 4095005
L1 RR Filter Tag Write Accesses: 3024530
L1 RR Filter Tag Read Accesses: 117252801
L1 IP Table Tag Write Accesses: 9047797
L1 IP Table Tag Read Accesses: 9047797
L1 RST Tag Write Accesses: 0
L1 RST Tag Read Accesses: 18335465
L1 RR Filter Write Accesses: 0
L1 RR Filter Read Accesses: 3687632
test: 1216621

DRAM Statistics
 CHANNEL 0
 RQ ROW_BUFFER_HIT:      12961  ROW_BUFFER_MISS:      52690
 DBUS_CONGESTED:         48
 WQ ROW_BUFFER_HIT:       8044  ROW_BUFFER_MISS:      33826  FULL:          0

 AVG_CONGESTED_CYCLE: 4
 All warmup complete: 2
Channel 0 Bank busy for read cycles: 0
Channel 0 Bank busy for write cycles: 0
Channel 0
Rank 0
0banks busy for read cycles: 80849755
0banks busy for write cycles: 19916
1banks busy for read cycles: 4947461
1banks busy for write cycles: 2769854
2banks busy for read cycles: 1037082
2banks busy for write cycles: 793635
3banks busy for read cycles: 213536
3banks busy for write cycles: 259931
4banks busy for read cycles: 67157
4banks busy for write cycles: 132781
5banks busy for read cycles: 37582
5banks busy for write cycles: 86843
6banks busy for read cycles: 24536
6banks busy for write cycles: 65790
7banks busy for read cycles: 14354
7banks busy for write cycles: 69239
8banks busy for read cycles: 23786
8banks busy for write cycles: 115470

CPU 0 Branch Prediction Accuracy: 99.4713% MPKI: 1.11484 Average ROB Occupancy at Mispredict: 58.3878
Branch types
NOT_BRANCH: 39456589 78.9132%
BRANCH_DIRECT_JUMP: 445350 0.8907%
BRANCH_INDIRECT: 131150 0.2623%
BRANCH_CONDITIONAL: 8130188 16.2604%
BRANCH_DIRECT_CALL: 732485 1.46497%
BRANCH_INDIRECT_CALL: 172369 0.344738%
BRANCH_RETURN: 931558 1.86312%
BRANCH_OTHER: 0 0%

DRAM PAGES: 1048576
Allocated PAGES: 6724
