
*** ChampSim Multicore Out-of-Order Simulator ***

Warmup Instructions: 50000000
Simulation Instructions: 50000000
Number of CPUs: 1
LLC sets: 2048
LLC ways: 16
Off-chip DRAM Size: 4096 MB Channels: 1 Width: 64-bit Data Rate: 6400 MT/s
CPU 0 runs ../IPC-traces//server_027.champsimtrace.xz
.xz
NUM_OF_IPS_IN_CRITICAL_IP_TRAINING: 64
NUM_OF_CRITICAL_IP_TRAINING_TABLE_WAYS: 2
NUM_OF_CRITICAL_IP_TRAINING_TABLE_SETS: 32
WOBBLY_CRITICAL_IP_CACHE_SETS: 32
WOBBLY_CRITICAL_IP_CACHE_WAYS: 4
BTB has LRU replacement policy
ITLB has LRU replacement policy
DTLB has LRU replacement policy
STLB has LRU replacement policy
CPU 0 L1I next line prefetcher
L1I has LRU replacement policy
IP Table Entries: 64
L1D has LRU replacement policy
Initialize SRRIP state for L2C
Initialize DRRIP state for LLC
Heartbeat CPU 0 instructions: 10000000 cycles: 2885056 heartbeat IPC: 3.46614 cumulative IPC: 3.46614 (Simulation time: 0 hr 2 min 13 sec) 
Heartbeat CPU 0 instructions: 20000001 cycles: 5767041 heartbeat IPC: 3.46983 cumulative IPC: 3.46798 (Simulation time: 0 hr 4 min 28 sec) 
Heartbeat CPU 0 instructions: 30000002 cycles: 8648808 heartbeat IPC: 3.47009 cumulative IPC: 3.46869 (Simulation time: 0 hr 6 min 43 sec) 
Heartbeat CPU 0 instructions: 40000000 cycles: 11531473 heartbeat IPC: 3.46901 cumulative IPC: 3.46877 (Simulation time: 0 hr 8 min 53 sec) 
Heartbeat CPU 0 instructions: 50000001 cycles: 14412167 heartbeat IPC: 3.47139 cumulative IPC: 3.46929 (Simulation time: 0 hr 11 min 2 sec) 

Warmup complete CPU 0 instructions: 50000001 cycles: 14412167 (Simulation time: 0 hr 11 min 2 sec) 

% increase in all ip prefetch 418.058
% increase in all ip prefetch 3.1781
Heartbeat CPU 0 instructions: 60000002 cycles: 30784156 heartbeat IPC: 0.610799 cumulative IPC: 0.610799 (Simulation time: 0 hr 13 min 34 sec) 
Heartbeat CPU 0 instructions: 70000001 cycles: 47165435 heartbeat IPC: 0.610453 cumulative IPC: 0.610626 (Simulation time: 0 hr 16 min 3 sec) 
Heartbeat CPU 0 instructions: 80000002 cycles: 63508165 heartbeat IPC: 0.611893 cumulative IPC: 0.611048 (Simulation time: 0 hr 18 min 33 sec) 
Heartbeat CPU 0 instructions: 90000000 cycles: 79988986 heartbeat IPC: 0.606766 cumulative IPC: 0.609972 (Simulation time: 0 hr 21 min 3 sec) 
Heartbeat CPU 0 instructions: 100000002 cycles: 96288017 heartbeat IPC: 0.613534 cumulative IPC: 0.610681 (Simulation time: 0 hr 24 min 8 sec) 
Finished CPU 0 instructions: 50000001 cycles: 81875850 cumulative IPC: 0.610681 (Simulation time: 0 hr 24 min 8 sec) 

ChampSim completed all CPUs

Region of Interest Statistics

CPU 0 cumulative IPC: 0.610681 instructions: 50000001 cycles: 81875850

CPU 0 Average Load ROB stall cycles: 1.9879e+07
CPU 0 Fraction of times ROB stalled by Loads: 35.9106
CPU 0 Percentage of Load stall cycles in Total stall cycles: 2.86248e+08
Issued all: 28121842
Issued LT all: 22337282
rob_not_full_when_issued_lt_all: 22039893
Issued LT one: 17310051
rob_not_full_when_issued_lt_one: 17054538
critical_ip_candidate_identification_operations: 7085312
critical_ip_candidate_identification_operation_per_cycle: 0.0865373
 Total stall cycles: 68510890
 Total load stall cycles: 196110718178810
Unique Load IPs: 14113
CPU 0 NUM of IPS identified critical: 3
CPU 0 Num of Load IPs stalling ROB: 12375
Threshold modification factor: -1
Max PIST entries: 64
Min PIST entries: 0
Avg PIST entries: 32
Trouble in retire width: 0.910599
MaC = Marked as critical.
lt_50_percent_before_Mac: 3
gt_90_percent_before_Mac: 0
gt_75_percent_before_Mac: 0
gt_50_percent_before_Mac: 0
stall_proportion_bin_same_before_after: 0
stall_proportion_bin_lower_before_after: 0
stall_proportion_bin_upper_before_after: 0
average_stall_proportion_before: 0.0571586
average_stall_proportion_after: 0.0563555
Critical IP stalls, total frequency: 113332
Non-critical IP stalls, total frequency: 3429324
Total Freq all stalling IPs: 3542656
Critical_IP_Detector_Accuracy_70: 0.666667
Critical_IP_Detector_Accuracy_80: 1
Critical_IP_Detector_Accuracy_90: 1
Critical_IP_Detector_Coverage_70: 0.0012837
Critical_IP_Detector_Coverage_80: 0.00130548
Critical_IP_Detector_Coverage_90: 0.000850822
stat_90_percent_critical_ip_stalls_freq: 3188351
stat_90_percent_non_critical_ip_stalls_freq: 354305
AVERAGE_ROB_Occupancy_90_Percent_Critical_IP_Stalls: 46.43
AVERAGE_ROB_Occupancy_90_Percent_Non_Critical_IP_Stalls: 26.3221
Critical_IP_ROB_Stalls_Bucket_0: 2787
Non-critical_IP_ROB_Stalls_Bucket_0: 2523838
Critical_IP_ROB_Stalls_Bucket_1: 51273
Non-critical_IP_ROB_Stalls_Bucket_1: 634249
Critical_IP_ROB_Stalls_Bucket_2: 24696
Non-critical_IP_ROB_Stalls_Bucket_2: 199181
Critical_IP_ROB_Stalls_Bucket_3: 8610
Non-critical_IP_ROB_Stalls_Bucket_3: 46104
Critical_IP_ROB_Stalls_Bucket_4: 5598
Non-critical_IP_ROB_Stalls_Bucket_4: 15138
Critical_IP_ROB_Stalls_Bucket_5: 5175
Non-critical_IP_ROB_Stalls_Bucket_5: 6200
Critical_IP_ROB_Stalls_Bucket_6: 15193
Non-critical_IP_ROB_Stalls_Bucket_6: 4614
0 => IPs accounting for >50 percent of stalls, 1 => 55, 2 => 60, 3 => 65 and so on till 90.
percent50: 50.0258 num IPs:  564
percent55: 55.004 num IPs: 787
percent60: 60.0052 num IPs: 1030
percent65: 65.0006 num IPs: 1277
percent70: 70.0019 num IPs: 1558
percent75: 75.0107 num IPs: 1917
percent80: 80.0038 num IPs: 2298
percent85: 85.0058 num IPs: 2825
percent90: 90.0005 num IPs: 3526
Critical_ROB_Stalls_Percent_0_Bucket_0: 1028174
Non-critical_ROB_Stalls_Percent_0_Bucket_0: 1498451
Critical_ROB_Stalls_Percent_0_Bucket_1: 470004
Non-critical_ROB_Stalls_Percent_0_Bucket_1: 215518
Critical_ROB_Stalls_Percent_0_Bucket_2: 177923
Non-critical_ROB_Stalls_Percent_0_Bucket_2: 45954
Critical_ROB_Stalls_Percent_0_Bucket_3: 49327
Non-critical_ROB_Stalls_Percent_0_Bucket_3: 5387
Critical_ROB_Stalls_Percent_0_Bucket_4: 18487
Non-critical_ROB_Stalls_Percent_0_Bucket_4: 2249
Critical_ROB_Stalls_Percent_0_Bucket_5: 10210
Non-critical_ROB_Stalls_Percent_0_Bucket_5: 1165
Critical_ROB_Stalls_Percent_0_Bucket_6: 18118
Non-critical_ROB_Stalls_Percent_0_Bucket_6: 1689
Critical_ROB_Stalls_Percent_1_Bucket_0: 1165102
Non-critical_ROB_Stalls_Percent_1_Bucket_0: 1361523
Critical_ROB_Stalls_Percent_1_Bucket_1: 500789
Non-critical_ROB_Stalls_Percent_1_Bucket_1: 184733
Critical_ROB_Stalls_Percent_1_Bucket_2: 185212
Non-critical_ROB_Stalls_Percent_1_Bucket_2: 38665
Critical_ROB_Stalls_Percent_1_Bucket_3: 50151
Non-critical_ROB_Stalls_Percent_1_Bucket_3: 4563
Critical_ROB_Stalls_Percent_1_Bucket_4: 18866
Non-critical_ROB_Stalls_Percent_1_Bucket_4: 1870
Critical_ROB_Stalls_Percent_1_Bucket_5: 10286
Non-critical_ROB_Stalls_Percent_1_Bucket_5: 1089
Critical_ROB_Stalls_Percent_1_Bucket_6: 18194
Non-critical_ROB_Stalls_Percent_1_Bucket_6: 1613
Critical_ROB_Stalls_Percent_2_Bucket_0: 1291085
Non-critical_ROB_Stalls_Percent_2_Bucket_0: 1235540
Critical_ROB_Stalls_Percent_2_Bucket_1: 542426
Non-critical_ROB_Stalls_Percent_2_Bucket_1: 143096
Critical_ROB_Stalls_Percent_2_Bucket_2: 194354
Non-critical_ROB_Stalls_Percent_2_Bucket_2: 29523
Critical_ROB_Stalls_Percent_2_Bucket_3: 50562
Non-critical_ROB_Stalls_Percent_2_Bucket_3: 4152
Critical_ROB_Stalls_Percent_2_Bucket_4: 18871
Non-critical_ROB_Stalls_Percent_2_Bucket_4: 1865
Critical_ROB_Stalls_Percent_2_Bucket_5: 10287
Non-critical_ROB_Stalls_Percent_2_Bucket_5: 1088
Critical_ROB_Stalls_Percent_2_Bucket_6: 18194
Non-critical_ROB_Stalls_Percent_2_Bucket_6: 1613
Critical_ROB_Stalls_Percent_3_Bucket_0: 1437303
Non-critical_ROB_Stalls_Percent_3_Bucket_0: 1089322
Critical_ROB_Stalls_Percent_3_Bucket_1: 568971
Non-critical_ROB_Stalls_Percent_3_Bucket_1: 116551
Critical_ROB_Stalls_Percent_3_Bucket_2: 198023
Non-critical_ROB_Stalls_Percent_3_Bucket_2: 25854
Critical_ROB_Stalls_Percent_3_Bucket_3: 50876
Non-critical_ROB_Stalls_Percent_3_Bucket_3: 3838
Critical_ROB_Stalls_Percent_3_Bucket_4: 19094
Non-critical_ROB_Stalls_Percent_3_Bucket_4: 1642
Critical_ROB_Stalls_Percent_3_Bucket_5: 10288
Non-critical_ROB_Stalls_Percent_3_Bucket_5: 1087
Critical_ROB_Stalls_Percent_3_Bucket_6: 18194
Non-critical_ROB_Stalls_Percent_3_Bucket_6: 1613
Critical_ROB_Stalls_Percent_4_Bucket_0: 1589002
Non-critical_ROB_Stalls_Percent_4_Bucket_0: 937623
Critical_ROB_Stalls_Percent_4_Bucket_1: 589763
Non-critical_ROB_Stalls_Percent_4_Bucket_1: 95759
Critical_ROB_Stalls_Percent_4_Bucket_2: 201940
Non-critical_ROB_Stalls_Percent_4_Bucket_2: 21937
Critical_ROB_Stalls_Percent_4_Bucket_3: 51460
Non-critical_ROB_Stalls_Percent_4_Bucket_3: 3254
Critical_ROB_Stalls_Percent_4_Bucket_4: 19215
Non-critical_ROB_Stalls_Percent_4_Bucket_4: 1521
Critical_ROB_Stalls_Percent_4_Bucket_5: 10353
Non-critical_ROB_Stalls_Percent_4_Bucket_5: 1022
Critical_ROB_Stalls_Percent_4_Bucket_6: 18196
Non-critical_ROB_Stalls_Percent_4_Bucket_6: 1611
Critical_ROB_Stalls_Percent_5_Bucket_0: 1734606
Non-critical_ROB_Stalls_Percent_5_Bucket_0: 792019
Critical_ROB_Stalls_Percent_5_Bucket_1: 613679
Non-critical_ROB_Stalls_Percent_5_Bucket_1: 71843
Critical_ROB_Stalls_Percent_5_Bucket_2: 209201
Non-critical_ROB_Stalls_Percent_5_Bucket_2: 14676
Critical_ROB_Stalls_Percent_5_Bucket_3: 51917
Non-critical_ROB_Stalls_Percent_5_Bucket_3: 2797
Critical_ROB_Stalls_Percent_5_Bucket_4: 19346
Non-critical_ROB_Stalls_Percent_5_Bucket_4: 1390
Critical_ROB_Stalls_Percent_5_Bucket_5: 10386
Non-critical_ROB_Stalls_Percent_5_Bucket_5: 989
Critical_ROB_Stalls_Percent_5_Bucket_6: 18237
Non-critical_ROB_Stalls_Percent_5_Bucket_6: 1570
Critical_ROB_Stalls_Percent_6_Bucket_0: 1891138
Non-critical_ROB_Stalls_Percent_6_Bucket_0: 635487
Critical_ROB_Stalls_Percent_6_Bucket_1: 629393
Non-critical_ROB_Stalls_Percent_6_Bucket_1: 56129
Critical_ROB_Stalls_Percent_6_Bucket_2: 213051
Non-critical_ROB_Stalls_Percent_6_Bucket_2: 10826
Critical_ROB_Stalls_Percent_6_Bucket_3: 52075
Non-critical_ROB_Stalls_Percent_6_Bucket_3: 2639
Critical_ROB_Stalls_Percent_6_Bucket_4: 19422
Non-critical_ROB_Stalls_Percent_6_Bucket_4: 1314
Critical_ROB_Stalls_Percent_6_Bucket_5: 10610
Non-critical_ROB_Stalls_Percent_6_Bucket_5: 765
Critical_ROB_Stalls_Percent_6_Bucket_6: 18567
Non-critical_ROB_Stalls_Percent_6_Bucket_6: 1240
Critical_ROB_Stalls_Percent_7_Bucket_0: 2047055
Non-critical_ROB_Stalls_Percent_7_Bucket_0: 479570
Critical_ROB_Stalls_Percent_7_Bucket_1: 646448
Non-critical_ROB_Stalls_Percent_7_Bucket_1: 39074
Critical_ROB_Stalls_Percent_7_Bucket_2: 216005
Non-critical_ROB_Stalls_Percent_7_Bucket_2: 7872
Critical_ROB_Stalls_Percent_7_Bucket_3: 52874
Non-critical_ROB_Stalls_Percent_7_Bucket_3: 1840
Critical_ROB_Stalls_Percent_7_Bucket_4: 19710
Non-critical_ROB_Stalls_Percent_7_Bucket_4: 1026
Critical_ROB_Stalls_Percent_7_Bucket_5: 10691
Non-critical_ROB_Stalls_Percent_7_Bucket_5: 684
Critical_ROB_Stalls_Percent_7_Bucket_6: 18674
Non-critical_ROB_Stalls_Percent_7_Bucket_6: 1133
Critical_ROB_Stalls_Percent_8_Bucket_0: 2211635
Non-critical_ROB_Stalls_Percent_8_Bucket_0: 314990
Critical_ROB_Stalls_Percent_8_Bucket_1: 656921
Non-critical_ROB_Stalls_Percent_8_Bucket_1: 28601
Critical_ROB_Stalls_Percent_8_Bucket_2: 217543
Non-critical_ROB_Stalls_Percent_8_Bucket_2: 6334
Critical_ROB_Stalls_Percent_8_Bucket_3: 53113
Non-critical_ROB_Stalls_Percent_8_Bucket_3: 1601
Critical_ROB_Stalls_Percent_8_Bucket_4: 19742
Non-critical_ROB_Stalls_Percent_8_Bucket_4: 994
Critical_ROB_Stalls_Percent_8_Bucket_5: 10708
Non-critical_ROB_Stalls_Percent_8_Bucket_5: 667
Critical_ROB_Stalls_Percent_8_Bucket_6: 18689
Non-critical_ROB_Stalls_Percent_8_Bucket_6: 1118
Average ROB occupancy Load Stall Begin: 36.517
Average ROB occupancy Load Stall End: 44.419
Min ROB occupancy Load Stall Begin: 1
Max ROB occupancy Load Stall Begin: 352
Min ROB occupancy Load Stall End: 1
Max ROB occupancy Load Stall End: 352
Average ROB occupancy Critical Load Stall Begin: 139.813
Average ROB occupancy Critical Load Stall End: 150.911
Min ROB occupancy Critical Load Stall Begin: 5
Max ROB occupancy Critical Load Stall Begin: 352
Min ROB occupancy Critical Load Stall End: 5
Max ROB occupancy Critical Load Stall End: 352
 ROB Load Stall Begin Bucket Count 0: 2760523
 ROB Load Stall End Bucket Count 0: 2526625
 ROB Critical Load Stall Begin Bucket Count 0: 3559
 ROB Critical Load Stall End Bucket Count 0: 2758
 ROB Load Stall Begin Bucket Count 1: 526236
 ROB Load Stall End Bucket Count 1: 685522
 ROB Critical Load Stall Begin Bucket Count 1: 57767
 ROB Critical Load Stall End Bucket Count 1: 51126
 ROB Load Stall Begin Bucket Count 2: 167742
 ROB Load Stall End Bucket Count 2: 223877
 ROB Critical Load Stall Begin Bucket Count 2: 20090
 ROB Critical Load Stall End Bucket Count 2: 24628
 ROB Load Stall Begin Bucket Count 3: 41766
 ROB Load Stall End Bucket Count 3: 54714
 ROB Critical Load Stall Begin Bucket Count 3: 6233
 ROB Critical Load Stall End Bucket Count 3: 8597
 ROB Load Stall Begin Bucket Count 4: 17720
 ROB Load Stall End Bucket Count 4: 20736
 ROB Critical Load Stall Begin Bucket Count 4: 5573
 ROB Critical Load Stall End Bucket Count 4: 5586
 ROB Load Stall Begin Bucket Count 5: 10480
 ROB Load Stall End Bucket Count 5: 11375
 ROB Critical Load Stall Begin Bucket Count 5: 5161
 ROB Critical Load Stall End Bucket Count 5: 5166
 ROB Load Stall Begin Bucket Count 6: 18189
 ROB Load Stall End Bucket Count 6: 19807
 ROB Critical Load Stall Begin Bucket Count 6: 14590
 ROB Critical Load Stall End Bucket Count 6: 15112
PIST Tag Read Accesses: 2317000
PIST Read Accesses: 1158500
PIST Tag Write Accesses: 2317000
PIST Write Accesses: 1158500
Criticality detector called times: 3429683
Max global_stall_cycles_count: 1948517
Threshold Modified: 1 times, factor: -1
Sturdy critical IP cache stats: 
 Unused entries: 0
CIC Tag Read Accesses: 0
CIC Read Accesses: 0
CIC Tag Write Accesses: 0
CIC Write Accesses: 0
Wobbly critical IP cache stats: 
 Unused entries: 125
CIC Tag Read Accesses: 85990594
CIC Read Accesses: 0
CIC Tag Write Accesses: 3
CIC Write Accesses: 0
ITLB TOTAL     ACCESS:   10093048  HIT:    9427716  MISS:     665332  HIT %:     93.408  MISS %:    6.59198   MPKI: 13.3066
ITLB LOAD TRANSLATION ACCESS:    8094479  HIT:    8005319  MISS:      89160  HIT %:    98.8985  MISS %:    1.10149   MPKI: 1.7832
ITLB TRANSLATION FROM L1D PREFETCHER ACCESS:    1998569  HIT:    1422397  MISS:     576172  HIT %:    71.1708  MISS %:    28.8292   MPKI: 11.5234
ITLBprefetch_cycle_count: 0 prefetches_per_prefetch_cycle: -nan
ITLB PREFETCH  REQUESTED:          0  ISSUED:          0  USEFUL:     466709  USELESS:     109457
ITLB USEFUL LOAD PREFETCHES:     466709 PREFETCH ISSUED TO LOWER LEVEL:          0  ACCURACY: inf
ITLB TIMELY PREFETCHES:     466709 LATE PREFETCHES: 299 DROPPED PREFETCHES: 3937
ITLB PREFETCHES SAME FILL-ORIGIN LEVEL: 0 DIFFERENT FILL-ORIGIN LEVEL: 0
ITLB AVERAGE MISS LATENCY: 24868.9 cycles
ITLB RQ	ACCESS:   15151050	FORWARD:          0	MERGED:    5011915	TO_CACHE:   10139135

DTLB TOTAL     ACCESS:   11607024  HIT:   11132842  MISS:     474182  HIT %:    95.9147  MISS %:     4.0853   MPKI: 9.48364
DTLB LOAD TRANSLATION ACCESS:   11607024  HIT:   11132842  MISS:     474182  HIT %:    95.9147  MISS %:     4.0853   MPKI: 9.48364
DTLBprefetch_cycle_count: 0 prefetches_per_prefetch_cycle: -nan
DTLB PREFETCH  REQUESTED:          0  ISSUED:          0  USEFUL:          0  USELESS:          0
DTLB USEFUL LOAD PREFETCHES:          0 PREFETCH ISSUED TO LOWER LEVEL:          0  ACCURACY: -nan
DTLB TIMELY PREFETCHES:          0 LATE PREFETCHES: 0 DROPPED PREFETCHES: 0
DTLB PREFETCHES SAME FILL-ORIGIN LEVEL: 0 DIFFERENT FILL-ORIGIN LEVEL: 0
DTLB AVERAGE MISS LATENCY: 9.32206 cycles
DTLB RQ	ACCESS:   15074782	FORWARD:          0	MERGED:    3442172	TO_CACHE:   11632610

STLB TOTAL     ACCESS:    1159403  HIT:    1157272  MISS:       2131  HIT %:    99.8162  MISS %:   0.183801   MPKI: 0.04262
STLB LOAD TRANSLATION ACCESS:     563043  HIT:     561039  MISS:       2004  HIT %:    99.6441  MISS %:   0.355923   MPKI: 0.04008
STLB TRANSLATION FROM L1D PREFETCHER ACCESS:     596360  HIT:     596233  MISS:        127  HIT %:    99.9787  MISS %:  0.0212959   MPKI: 0.00254
STLBprefetch_cycle_count: 0 prefetches_per_prefetch_cycle: -nan
STLB PREFETCH  REQUESTED:          0  ISSUED:          0  USEFUL:        114  USELESS:         11
STLB USEFUL LOAD PREFETCHES:        114 PREFETCH ISSUED TO LOWER LEVEL:          0  ACCURACY: inf
STLB TIMELY PREFETCHES:        114 LATE PREFETCHES: 0 DROPPED PREFETCHES: 3937
STLB PREFETCHES SAME FILL-ORIGIN LEVEL: 0 DIFFERENT FILL-ORIGIN LEVEL: 0
STLB AVERAGE MISS LATENCY: 75.595 cycles
STLB RQ	ACCESS:    1173298	FORWARD:          0	MERGED:       9958	TO_CACHE:    1163340

STLB Hit, L1D data hit: 0
STLB Hit, L2C data hit: 0
STLB Hit, LLC data hit: 0
STLB Hit, LLC data miss: 0
STLB STLB hints to L2: 0
L1D TOTAL     ACCESS:   14603443  HIT:   13577459  MISS:    1025984  HIT %:    92.9744  MISS %:    7.02563   MPKI: 20.5197
L1D LOAD      ACCESS:    8174483  HIT:    7447006  MISS:     727477  HIT %:    91.1006  MISS %:    8.89936   MPKI: 14.5495
L1D RFO       ACCESS:    6401448  HIT:    6113074  MISS:     288374  HIT %:    95.4952  MISS %:    4.50482   MPKI: 5.76748
L1D PREFETCH  ACCESS:      27512  HIT:      17379  MISS:      10133  HIT %:    63.1688  MISS %:    36.8312   MPKI: 0.20266
L1Dprefetch_cycle_count: 22231 prefetches_per_prefetch_cycle: 2.6853
L1D PREFETCH  REQUESTED:      59697  ISSUED:      59697  USEFUL:       4735  USELESS:       5398
L1D USEFUL LOAD PREFETCHES:       4735 PREFETCH ISSUED TO LOWER LEVEL:      11752  ACCURACY: 40.291
L1D TIMELY PREFETCHES:       4735 LATE PREFETCHES: 1611 DROPPED PREFETCHES: 0
L1D PREFETCHES SAME FILL-ORIGIN LEVEL: 11752 DIFFERENT FILL-ORIGIN LEVEL: 0
L1D AVERAGE MISS LATENCY: 51527.8 cycles
L1D RQ	ACCESS:   11677202	FORWARD:          0	MERGED:    3335550	TO_CACHE:    8201967
L1D WQ	ACCESS:    6942496	FORWARD:     139688	MERGED:      69681	TO_CACHE:    6872815
L1D PQ	ACCESS:      29850	FORWARD:          0	MERGED:          0	TO_CACHE:      29847

L1D UNIQUE REGIONS ACCESSED: 0
L1D REGIONS CONFLICTS: 0
L1D Cross Page Prefetch Requests: 0
L1D Same Page Prefetch Requests: 34299
L1D ROI Sum of L1D PQ occupancy: 437495
L1D PREFETCHES PUSHED FROM L2C: 0
L1I TOTAL     ACCESS:   15000040  HIT:   10885729  MISS:    4114311  HIT %:    72.5713  MISS %:    27.4287   MPKI: 82.2862
L1I LOAD      ACCESS:    9542249  HIT:    9271268  MISS:     270981  HIT %:    97.1602  MISS %:     2.8398   MPKI: 5.41962
L1I PREFETCH  ACCESS:    5457791  HIT:    1614461  MISS:    3843330  HIT %:    29.5809  MISS %:    70.4191   MPKI: 76.8666
L1Iprefetch_cycle_count: 0 prefetches_per_prefetch_cycle: inf
L1I PREFETCH  REQUESTED:    5711985  ISSUED:    5703750  USEFUL:    2617551  USELESS:    1225743
L1I USEFUL LOAD PREFETCHES:    2617551 PREFETCH ISSUED TO LOWER LEVEL:    3873816  ACCURACY: 67.5703
L1I TIMELY PREFETCHES:    2617551 LATE PREFETCHES: 30486 DROPPED PREFETCHES: 9320
L1I PREFETCHES SAME FILL-ORIGIN LEVEL: 3873816 DIFFERENT FILL-ORIGIN LEVEL: 0
L1I AVERAGE MISS LATENCY: 404186 cycles
L1I RQ	ACCESS:   13505621	FORWARD:          0	MERGED:    3939862	TO_CACHE:    9565759
L1I PQ	ACCESS:    5703750	FORWARD:          0	MERGED:     118459	TO_CACHE:    5585291

BTB TOTAL     ACCESS:    5988364  HIT:    3982731  MISS:    2005633  HIT %:    66.5078  MISS %:    33.4922   MPKI: 40.1127
BTB BRANCH_DIRECT_JUMP	ACCESS:     526631  HIT:     350330  MISS:     176301
BTB BRANCH_INDIRECT	ACCESS:     205902  HIT:     168509  MISS:      37393
BTB BRANCH_CONDITIONAL	ACCESS:    3029929  HIT:    2469491  MISS:     560438
BTB BRANCH_DIRECT_CALL	ACCESS:     938462  HIT:     531149  MISS:     407313
BTB BRANCH_INDIRECT_CALL	ACCESS:     174486  HIT:      95785  MISS:      78701
BTB BRANCH_RETURN	ACCESS:    1112954  HIT:     367467  MISS:     745487
BTB BRANCH_OTHER ACCESS:          0  HIT:          0  MISS:          0

L2C TOTAL     ACCESS:    5654506  HIT:    5183626  MISS:     470880  HIT %:    91.6725  MISS %:    8.32752   MPKI: 9.4176
L2C LOAD      ACCESS:     966268  HIT:     822259  MISS:     144009  HIT %:    85.0964  MISS %:    14.9036   MPKI: 2.88018
L2C DATA LOAD MPKI: 2.18178
L2C INSTRUCTION LOAD MPKI: 0.6984
L2C RFO       ACCESS:     288366  HIT:     231349  MISS:      57017  HIT %:    80.2276  MISS %:    19.7724   MPKI: 1.14034
L2C PREFETCH  ACCESS:    3885567  HIT:    3637888  MISS:     247679  HIT %:    93.6257  MISS %:    6.37433   MPKI: 4.95358
L2C DATA PREFETCH MPKI: 0.1593
L2C INSTRUCTION PREFETCH MPKI: 4.79428
L2C WRITEBACK ACCESS:     506555  HIT:     486135  MISS:      20420  HIT %:    95.9688  MISS %:    4.03115   MPKI: 0.4084
L2C LOAD TRANSLATION ACCESS:       2159  HIT:        585  MISS:       1574  HIT %:    27.0959  MISS %:    72.9041   MPKI: 0.03148
L2C TRANSLATION FROM L1D PREFETCHER ACCESS:       5591  HIT:       5410  MISS:        181  HIT %:    96.7627  MISS %:    3.23735   MPKI: 0.00362
L2Cprefetch_cycle_count: 0 prefetches_per_prefetch_cycle: -nan
L2C PREFETCH  REQUESTED:          0  ISSUED:          0  USEFUL:       5985  USELESS:     242094
L2C USEFUL LOAD PREFETCHES:       5985 PREFETCH ISSUED TO LOWER LEVEL:     247679  ACCURACY: 2.41643
L2C TIMELY PREFETCHES:       5985 LATE PREFETCHES: 0 DROPPED PREFETCHES: 0
L2C PREFETCHES SAME FILL-ORIGIN LEVEL: 0 DIFFERENT FILL-ORIGIN LEVEL: 0
L2C AVERAGE MISS LATENCY: 37.7321 cycles
L2C RQ	ACCESS:    1262477	FORWARD:          0	MERGED:          0	TO_CACHE:    1262384
L2C WQ	ACCESS:     506555	FORWARD:         94	MERGED:          0	TO_CACHE:     506555
L2C PQ	ACCESS:    3885568	FORWARD:          0	MERGED:          0	TO_CACHE:    3885567

L2C Instructions Evicting Data 100896
L2C Translations Evicting Data 1061
L2C Data Evicting Data 84412
L2C Instructions Evicting Instructions 173024
L2C Translations Evicting Instructions 676
L2C Data Evicting Instructions 88669
L2C Instructions Evicting Translations 714
L2C Translations Evicting Translations 18
L2C Data Evicting Translations 990
L2C Dense regions hint from L2: 0
PSCL5 TOTAL     ACCESS:       6068  HIT:       6068  MISS:          0  HIT %:        100  MISS %:          0   MPKI: 0
PSCL5 LOAD TRANSLATION ACCESS:       2004  HIT:       2004  MISS:          0  HIT %:        100  MISS %:          0   MPKI: 0
PSCL5 TRANSLATION FROM L1D PREFETCHER ACCESS:       4064  HIT:       4064  MISS:          0  HIT %:        100  MISS %:          0   MPKI: 0
PSCL5prefetch_cycle_count: 0 prefetches_per_prefetch_cycle: -nan
PSCL5 PREFETCH  REQUESTED:          0  ISSUED:          0  USEFUL:          0  USELESS:          0
PSCL5 USEFUL LOAD PREFETCHES:          0 PREFETCH ISSUED TO LOWER LEVEL:          0  ACCURACY: -nan
PSCL5 TIMELY PREFETCHES:          0 LATE PREFETCHES: 0 DROPPED PREFETCHES: 0
PSCL5 PREFETCHES SAME FILL-ORIGIN LEVEL: 0 DIFFERENT FILL-ORIGIN LEVEL: 0

PSCL4 TOTAL     ACCESS:       5612  HIT:       5595  MISS:         17  HIT %:    99.6971  MISS %:   0.302922   MPKI: 0.00034
PSCL4 LOAD TRANSLATION ACCESS:       1858  HIT:       1841  MISS:         17  HIT %:     99.085  MISS %:   0.914962   MPKI: 0.00034
PSCL4 TRANSLATION FROM L1D PREFETCHER ACCESS:       3754  HIT:       3754  MISS:          0  HIT %:        100  MISS %:          0   MPKI: 0
PSCL4prefetch_cycle_count: 0 prefetches_per_prefetch_cycle: -nan
PSCL4 PREFETCH  REQUESTED:          0  ISSUED:          0  USEFUL:          0  USELESS:          0
PSCL4 USEFUL LOAD PREFETCHES:          0 PREFETCH ISSUED TO LOWER LEVEL:          0  ACCURACY: -nan
PSCL4 TIMELY PREFETCHES:          0 LATE PREFETCHES: 0 DROPPED PREFETCHES: 0
PSCL4 PREFETCHES SAME FILL-ORIGIN LEVEL: 0 DIFFERENT FILL-ORIGIN LEVEL: 0

PSCL3 TOTAL     ACCESS:       5671  HIT:       5654  MISS:         17  HIT %:    99.7002  MISS %:   0.299771   MPKI: 0.00034
PSCL3 LOAD TRANSLATION ACCESS:       1917  HIT:       1900  MISS:         17  HIT %:    99.1132  MISS %:   0.886802   MPKI: 0.00034
PSCL3 TRANSLATION FROM L1D PREFETCHER ACCESS:       3754  HIT:       3754  MISS:          0  HIT %:        100  MISS %:          0   MPKI: 0
PSCL3prefetch_cycle_count: 0 prefetches_per_prefetch_cycle: -nan
PSCL3 PREFETCH  REQUESTED:          0  ISSUED:          0  USEFUL:          0  USELESS:          0
PSCL3 USEFUL LOAD PREFETCHES:          0 PREFETCH ISSUED TO LOWER LEVEL:          0  ACCURACY: -nan
PSCL3 TIMELY PREFETCHES:          0 LATE PREFETCHES: 0 DROPPED PREFETCHES: 0
PSCL3 PREFETCHES SAME FILL-ORIGIN LEVEL: 0 DIFFERENT FILL-ORIGIN LEVEL: 0

PSCL2 TOTAL     ACCESS:       4702  HIT:       4560  MISS:        142  HIT %:      96.98  MISS %:    3.01999   MPKI: 0.00284
PSCL2 LOAD TRANSLATION ACCESS:       2021  HIT:       1879  MISS:        142  HIT %:    92.9738  MISS %:    7.02622   MPKI: 0.00284
PSCL2 TRANSLATION FROM L1D PREFETCHER ACCESS:       2681  HIT:       2681  MISS:          0  HIT %:        100  MISS %:          0   MPKI: 0
PSCL2prefetch_cycle_count: 0 prefetches_per_prefetch_cycle: -nan
PSCL2 PREFETCH  REQUESTED:          0  ISSUED:          0  USEFUL:          0  USELESS:          0
PSCL2 USEFUL LOAD PREFETCHES:          0 PREFETCH ISSUED TO LOWER LEVEL:          0  ACCURACY: -nan
PSCL2 TIMELY PREFETCHES:          0 LATE PREFETCHES: 0 DROPPED PREFETCHES: 0
PSCL2 PREFETCHES SAME FILL-ORIGIN LEVEL: 0 DIFFERENT FILL-ORIGIN LEVEL: 0

LLC TOTAL     ACCESS:     531079  HIT:     504224  MISS:      26855  HIT %:    94.9433  MISS %:    5.05669   MPKI: 0.5371
LLC LOAD      ACCESS:     144008  HIT:     135298  MISS:       8710  HIT %:    93.9517  MISS %:    6.04828   MPKI: 0.1742
LLC RFO       ACCESS:      57017  HIT:      42513  MISS:      14504  HIT %:     74.562  MISS %:     25.438   MPKI: 0.29008
LLC PREFETCH  ACCESS:     247679  HIT:     244459  MISS:       3220  HIT %:    98.6999  MISS %:    1.30007   MPKI: 0.0644
LLC WRITEBACK ACCESS:      80620  HIT:      80325  MISS:        295  HIT %:    99.6341  MISS %:   0.365914   MPKI: 0.0059
LLC LOAD TRANSLATION ACCESS:       1574  HIT:       1453  MISS:        121  HIT %:    92.3126  MISS %:    7.68742   MPKI: 0.00242
LLC TRANSLATION FROM L1D PREFETCHER ACCESS:        181  HIT:        176  MISS:          5  HIT %:    97.2376  MISS %:    2.76243   MPKI: 0.0001
LLCprefetch_cycle_count: 0 prefetches_per_prefetch_cycle: -nan
LLC PREFETCH  REQUESTED:          0  ISSUED:          0  USEFUL:        246  USELESS:       1940
LLC USEFUL LOAD PREFETCHES:        246 PREFETCH ISSUED TO LOWER LEVEL:       3220  ACCURACY: 7.63975
LLC TIMELY PREFETCHES:        246 LATE PREFETCHES: 0 DROPPED PREFETCHES: 0
LLC PREFETCHES SAME FILL-ORIGIN LEVEL: 0 DIFFERENT FILL-ORIGIN LEVEL: 0
LLC AVERAGE MISS LATENCY: 156.963 cycles
LLC RQ	ACCESS:     202781	FORWARD:          0	MERGED:          0	TO_CACHE:     202780
LLC WQ	ACCESS:      80620	FORWARD:          1	MERGED:          0	TO_CACHE:      80620
LLC PQ	ACCESS:     247679	FORWARD:          0	MERGED:          0	TO_CACHE:     247679

LLC Dense regions hint to LLC: 0

RAW hits: 957526
Loads Generated: 12634728
Loads sent to L1D: 11677202
Stores Generated: 6942481
Stores sent to L1D: 6942496
Major fault: 0 Minor fault: 2582
Allocated PAGES: 2582
I-Shadow cache 408 bytes
Touched + WorthPF tables 6144 bytes 
MMA filter 174 bytes 
FNL filter 272 bytes 
TOTAL PREFETCHER STORAGE SIZE: 25174 bytes
CPU 0 L1I next line prefetcher final stats

total_pref_operate_instances_l1: 467541
dynamic_config_counter_instances_1: 158953
dynamic_config_counter_instances_2: 3601
dynamic_config_counter_instances_3: 2364
dynamic_config_counter_instances_4: 0
dynamic_config_counter_instances_5: 302623
stream: 
stream:times selected: 75529
stream:pref_filled: 3788
stream:pref_useful: 845
stream:pref_late: 1044
stream:misses: 122
stream:misses_by_poll: 0

CS: 
CS:times selected: 12942
CS:pref_filled: 5905
CS:pref_useful: 3873
CS:pref_late: 963
CS:misses: 1502
CS:misses_by_poll: 58

CPLX: 
CPLX:times selected: 62023
CPLX:pref_filled: 1429
CPLX:pref_useful: 285
CPLX:pref_late: 190
CPLX:misses: 2217
CPLX:misses_by_poll: 0

NL_L1: 
NL:times selected: 4542
NL:pref_filled: 575
NL:pref_useful: 124
NL:pref_late: 59
NL:misses: 358
NL:misses_by_poll: 0

total selections: 155036
total_filled: 10133
total_useful: 4735
total_late: 2384
total_polluted: 58
total_misses_after_warmup: 30967
conflicts: 134381
Degree Incremented Times: 1632
Degree Decremented Times: 8031

L1 IP Table Write Accesses: 324540
L1 IP Table Read Accesses: 190159
L1 RST Write Accesses: 70746
L1 RST Read Accesses: 141492
L1 CSPT Write Accesses: 70746
L1 CSPT Read Accesses: 128538
L1 RR Filter Tag Write Accesses: 29850
L1 RR Filter Tag Read Accesses: 5034445
L1 IP Table Tag Write Accesses: 467541
L1 IP Table Tag Read Accesses: 467541
L1 RST Tag Write Accesses: 0
L1 RST Tag Read Accesses: 660233
L1 RR Filter Write Accesses: 0
L1 RR Filter Read Accesses: 193330
test: 9345

DRAM Statistics
 CHANNEL 0
 RQ ROW_BUFFER_HIT:       9928  ROW_BUFFER_MISS:      16629
 DBUS_CONGESTED:          1
 WQ ROW_BUFFER_HIT:       1449  ROW_BUFFER_MISS:      12853  FULL:          0

 AVG_CONGESTED_CYCLE: 1
 All warmup complete: 2
Channel 0 Bank busy for read cycles: 0
Channel 0 Bank busy for write cycles: 0
Channel 0
Rank 0
0banks busy for read cycles: 79084080
0banks busy for write cycles: 3410
1banks busy for read cycles: 1313548
1banks busy for write cycles: 454094
2banks busy for read cycles: 150556
2banks busy for write cycles: 146216
3banks busy for read cycles: 56871
3banks busy for write cycles: 92146
4banks busy for read cycles: 31876
4banks busy for write cycles: 82752
5banks busy for read cycles: 24342
5banks busy for write cycles: 70987
6banks busy for read cycles: 26540
6banks busy for write cycles: 67000
7banks busy for read cycles: 30948
7banks busy for write cycles: 68879
8banks busy for read cycles: 74201
8banks busy for write cycles: 97405

CPU 0 Branch Prediction Accuracy: 99.8082% MPKI: 0.35064 Average ROB Occupancy at Mispredict: 71.2649
Branch types
NOT_BRANCH: 40857254 81.7145%
BRANCH_DIRECT_JUMP: 526631 1.05326%
BRANCH_INDIRECT: 205902 0.411804%
BRANCH_CONDITIONAL: 6184017 12.368%
BRANCH_DIRECT_CALL: 938462 1.87692%
BRANCH_INDIRECT_CALL: 174486 0.348972%
BRANCH_RETURN: 1112954 2.22591%
BRANCH_OTHER: 0 0%

DRAM PAGES: 1048576
Allocated PAGES: 2582
