Initialize SIGNATURE TABLE
ST_SET: 1
ST_WAY: 16
ST_TAG_BIT: 16
ST_TAG_MASK: ffff

Initialize PATTERN TABLE
PT_SET: 16
PT_WAY: 4
SIG_DELTA_BIT: 7
C_SIG_BIT: 4
C_DELTA_BIT: 4

Initialize PREFETCH FILTER
FILTER_SET: 1024

Initialize PERCEPTRON
PERC_ENTRIES: 64
PERC_FEATURES: 9

*** ChampSim Multicore Out-of-Order Simulator ***

Warmup Instructions: 50000000
Simulation Instructions: 50000000
Number of CPUs: 1
LLC sets: 2048
LLC ways: 16
Off-chip DRAM Size: 4096 MB Channels: 1 Width: 64-bit Data Rate: 6400 MT/s
CPU 0 runs ../IPC-traces//server_001.champsimtrace.xz
.xz
NUM_OF_IPS_IN_CRITICAL_IP_TRAINING: 64
NUM_OF_CRITICAL_IP_TRAINING_TABLE_WAYS: 2
NUM_OF_CRITICAL_IP_TRAINING_TABLE_SETS: 32
WOBBLY_CRITICAL_IP_CACHE_SETS: 32
WOBBLY_CRITICAL_IP_CACHE_WAYS: 4
BTB has LRU replacement policy
ITLB has LRU replacement policy
DTLB has LRU replacement policy
STLB has LRU replacement policy
CPU 0 L1I next line prefetcher
L1I has LRU replacement policy
L1D has LRU replacement policy
Initialize SRRIP state for L2C
Initialize DRRIP state for LLC
Heartbeat CPU 0 instructions: 10000003 cycles: 2757451 heartbeat IPC: 3.62654 cumulative IPC: 3.62654 (Simulation time: 0 hr 2 min 49 sec) 
Heartbeat CPU 0 instructions: 20000003 cycles: 5520839 heartbeat IPC: 3.61875 cumulative IPC: 3.62264 (Simulation time: 0 hr 5 min 5 sec) 
Heartbeat CPU 0 instructions: 30000001 cycles: 8277910 heartbeat IPC: 3.62704 cumulative IPC: 3.6241 (Simulation time: 0 hr 7 min 14 sec) 
Heartbeat CPU 0 instructions: 40000001 cycles: 11040624 heartbeat IPC: 3.61963 cumulative IPC: 3.62298 (Simulation time: 0 hr 9 min 28 sec) 
Heartbeat CPU 0 instructions: 50000000 cycles: 13804137 heartbeat IPC: 3.61858 cumulative IPC: 3.6221 (Simulation time: 0 hr 11 min 20 sec) 

Warmup complete CPU 0 instructions: 50000004 cycles: 13804138 (Simulation time: 0 hr 11 min 20 sec) 

Heartbeat CPU 0 instructions: 60000002 cycles: 28145277 heartbeat IPC: 0.697295 cumulative IPC: 0.697295 (Simulation time: 0 hr 13 min 54 sec) 
Heartbeat CPU 0 instructions: 70000001 cycles: 42238747 heartbeat IPC: 0.709548 cumulative IPC: 0.703368 (Simulation time: 0 hr 16 min 16 sec) 
Heartbeat CPU 0 instructions: 80000003 cycles: 55903063 heartbeat IPC: 0.731833 cumulative IPC: 0.712607 (Simulation time: 0 hr 18 min 37 sec) 
Heartbeat CPU 0 instructions: 90000002 cycles: 70405937 heartbeat IPC: 0.689518 cumulative IPC: 0.706691 (Simulation time: 0 hr 21 min 0 sec) 
Heartbeat CPU 0 instructions: 100000003 cycles: 84048534 heartbeat IPC: 0.732998 cumulative IPC: 0.711801 (Simulation time: 0 hr 23 min 15 sec) 
Finished CPU 0 instructions: 50000003 cycles: 70244397 cumulative IPC: 0.711801 (Simulation time: 0 hr 23 min 15 sec) 

ChampSim completed all CPUs

Region of Interest Statistics

CPU 0 cumulative IPC: 0.711801 instructions: 50000003 cycles: 70244397

CPU 0 Average Load ROB stall cycles: 2.11317e+07
CPU 0 Fraction of times ROB stalled by Loads: 43.0567
CPU 0 Percentage of Load stall cycles in Total stall cycles: 1.96155e+08
Issued all: 31070514
Issued LT all: 24945762
rob_not_full_when_issued_lt_all: 18607814
Issued LT one: 20832529
rob_not_full_when_issued_lt_one: 15226498
 Total stall cycles: 57416461
 Total load stall cycles: 112625496134009
CPU 0 NUM of IPS identified critical: 0
CPU 0 Num of Load IPs stalling ROB: 16301
Threshold modification factor: 0
Max PIST entries: 64
Min PIST entries: 0
Avg PIST entries: 32
Trouble in retire width: 0.88669
MaC = Marked as critical.
lt_50_percent_before_Mac: 0
gt_90_percent_before_Mac: 0
gt_75_percent_before_Mac: 0
gt_50_percent_before_Mac: 0
stall_proportion_bin_same_before_after: 0
stall_proportion_bin_lower_before_after: 0
stall_proportion_bin_upper_before_after: 0
average_stall_proportion_before: -nan
average_stall_proportion_after: -nan
Critical IP stalls, total frequency: 0
Non-critical IP stalls, total frequency: 2294790
Total Freq all stalling IPs: 2294790
stat_90_percent_critical_ip_stalls_freq: 2065405
stat_90_percent_non_critical_ip_stalls_freq: 229385
Critical_IP_ROB_Stalls_Bucket_0: 0
Non-critical_IP_ROB_Stalls_Bucket_0: 662840
Critical_IP_ROB_Stalls_Bucket_1: 0
Non-critical_IP_ROB_Stalls_Bucket_1: 671018
Critical_IP_ROB_Stalls_Bucket_2: 0
Non-critical_IP_ROB_Stalls_Bucket_2: 301679
Critical_IP_ROB_Stalls_Bucket_3: 0
Non-critical_IP_ROB_Stalls_Bucket_3: 151851
Critical_IP_ROB_Stalls_Bucket_4: 0
Non-critical_IP_ROB_Stalls_Bucket_4: 126905
Critical_IP_ROB_Stalls_Bucket_5: 0
Non-critical_IP_ROB_Stalls_Bucket_5: 134710
Critical_IP_ROB_Stalls_Bucket_6: 0
Non-critical_IP_ROB_Stalls_Bucket_6: 245787
0 => IPs accounting for >50 percent of stalls, 1 => 55, 2 => 60, 3 => 65 and so on till 90.
percent50: 50.0889 num IPs:  166
percent55: 55.0485 num IPs: 214
percent60: 60.0683 num IPs: 276
percent65: 65.0063 num IPs: 352
percent70: 70.0148 num IPs: 463
percent75: 75.0045 num IPs: 607
percent80: 80.0151 num IPs: 780
percent85: 85.0066 num IPs: 1049
percent90: 90.0041 num IPs: 1583
Critical_ROB_Stalls_Percent_0_Bucket_0: 201134
Non-critical_ROB_Stalls_Percent_0_Bucket_0: 461706
Critical_ROB_Stalls_Percent_0_Bucket_1: 366505
Non-critical_ROB_Stalls_Percent_0_Bucket_1: 304513
Critical_ROB_Stalls_Percent_0_Bucket_2: 171888
Non-critical_ROB_Stalls_Percent_0_Bucket_2: 129791
Critical_ROB_Stalls_Percent_0_Bucket_3: 80817
Non-critical_ROB_Stalls_Percent_0_Bucket_3: 71034
Critical_ROB_Stalls_Percent_0_Bucket_4: 67901
Non-critical_ROB_Stalls_Percent_0_Bucket_4: 59004
Critical_ROB_Stalls_Percent_0_Bucket_5: 88670
Non-critical_ROB_Stalls_Percent_0_Bucket_5: 46040
Critical_ROB_Stalls_Percent_0_Bucket_6: 172520
Non-critical_ROB_Stalls_Percent_0_Bucket_6: 73267
Critical_ROB_Stalls_Percent_1_Bucket_0: 247846
Non-critical_ROB_Stalls_Percent_1_Bucket_0: 414994
Critical_ROB_Stalls_Percent_1_Bucket_1: 398027
Non-critical_ROB_Stalls_Percent_1_Bucket_1: 272991
Critical_ROB_Stalls_Percent_1_Bucket_2: 187617
Non-critical_ROB_Stalls_Percent_1_Bucket_2: 114062
Critical_ROB_Stalls_Percent_1_Bucket_3: 88264
Non-critical_ROB_Stalls_Percent_1_Bucket_3: 63587
Critical_ROB_Stalls_Percent_1_Bucket_4: 71282
Non-critical_ROB_Stalls_Percent_1_Bucket_4: 55623
Critical_ROB_Stalls_Percent_1_Bucket_5: 91806
Non-critical_ROB_Stalls_Percent_1_Bucket_5: 42904
Critical_ROB_Stalls_Percent_1_Bucket_6: 178406
Non-critical_ROB_Stalls_Percent_1_Bucket_6: 67381
Critical_ROB_Stalls_Percent_2_Bucket_0: 293312
Non-critical_ROB_Stalls_Percent_2_Bucket_0: 369528
Critical_ROB_Stalls_Percent_2_Bucket_1: 435803
Non-critical_ROB_Stalls_Percent_2_Bucket_1: 235215
Critical_ROB_Stalls_Percent_2_Bucket_2: 198079
Non-critical_ROB_Stalls_Percent_2_Bucket_2: 103600
Critical_ROB_Stalls_Percent_2_Bucket_3: 94653
Non-critical_ROB_Stalls_Percent_2_Bucket_3: 57198
Critical_ROB_Stalls_Percent_2_Bucket_4: 73880
Non-critical_ROB_Stalls_Percent_2_Bucket_4: 53025
Critical_ROB_Stalls_Percent_2_Bucket_5: 97090
Non-critical_ROB_Stalls_Percent_2_Bucket_5: 37620
Critical_ROB_Stalls_Percent_2_Bucket_6: 185625
Non-critical_ROB_Stalls_Percent_2_Bucket_6: 60162
Critical_ROB_Stalls_Percent_3_Bucket_0: 340899
Non-critical_ROB_Stalls_Percent_3_Bucket_0: 321941
Critical_ROB_Stalls_Percent_3_Bucket_1: 459698
Non-critical_ROB_Stalls_Percent_3_Bucket_1: 211320
Critical_ROB_Stalls_Percent_3_Bucket_2: 208078
Non-critical_ROB_Stalls_Percent_3_Bucket_2: 93601
Critical_ROB_Stalls_Percent_3_Bucket_3: 102159
Non-critical_ROB_Stalls_Percent_3_Bucket_3: 49692
Critical_ROB_Stalls_Percent_3_Bucket_4: 80994
Non-critical_ROB_Stalls_Percent_3_Bucket_4: 45911
Critical_ROB_Stalls_Percent_3_Bucket_5: 104076
Non-critical_ROB_Stalls_Percent_3_Bucket_5: 30634
Critical_ROB_Stalls_Percent_3_Bucket_6: 195855
Non-critical_ROB_Stalls_Percent_3_Bucket_6: 49932
Critical_ROB_Stalls_Percent_4_Bucket_0: 377164
Non-critical_ROB_Stalls_Percent_4_Bucket_0: 285676
Critical_ROB_Stalls_Percent_4_Bucket_1: 487037
Non-critical_ROB_Stalls_Percent_4_Bucket_1: 183981
Critical_ROB_Stalls_Percent_4_Bucket_2: 226659
Non-critical_ROB_Stalls_Percent_4_Bucket_2: 75020
Critical_ROB_Stalls_Percent_4_Bucket_3: 108021
Non-critical_ROB_Stalls_Percent_4_Bucket_3: 43830
Critical_ROB_Stalls_Percent_4_Bucket_4: 91793
Non-critical_ROB_Stalls_Percent_4_Bucket_4: 35112
Critical_ROB_Stalls_Percent_4_Bucket_5: 111069
Non-critical_ROB_Stalls_Percent_4_Bucket_5: 23641
Critical_ROB_Stalls_Percent_4_Bucket_6: 204949
Non-critical_ROB_Stalls_Percent_4_Bucket_6: 40838
Critical_ROB_Stalls_Percent_5_Bucket_0: 412754
Non-critical_ROB_Stalls_Percent_5_Bucket_0: 250086
Critical_ROB_Stalls_Percent_5_Bucket_1: 532932
Non-critical_ROB_Stalls_Percent_5_Bucket_1: 138086
Critical_ROB_Stalls_Percent_5_Bucket_2: 238165
Non-critical_ROB_Stalls_Percent_5_Bucket_2: 63514
Critical_ROB_Stalls_Percent_5_Bucket_3: 114736
Non-critical_ROB_Stalls_Percent_5_Bucket_3: 37115
Critical_ROB_Stalls_Percent_5_Bucket_4: 97478
Non-critical_ROB_Stalls_Percent_5_Bucket_4: 29427
Critical_ROB_Stalls_Percent_5_Bucket_5: 113704
Non-critical_ROB_Stalls_Percent_5_Bucket_5: 21006
Critical_ROB_Stalls_Percent_5_Bucket_6: 211426
Non-critical_ROB_Stalls_Percent_5_Bucket_6: 34361
Critical_ROB_Stalls_Percent_6_Bucket_0: 463732
Non-critical_ROB_Stalls_Percent_6_Bucket_0: 199108
Critical_ROB_Stalls_Percent_6_Bucket_1: 560067
Non-critical_ROB_Stalls_Percent_6_Bucket_1: 110951
Critical_ROB_Stalls_Percent_6_Bucket_2: 251941
Non-critical_ROB_Stalls_Percent_6_Bucket_2: 49738
Critical_ROB_Stalls_Percent_6_Bucket_3: 123252
Non-critical_ROB_Stalls_Percent_6_Bucket_3: 28599
Critical_ROB_Stalls_Percent_6_Bucket_4: 102747
Non-critical_ROB_Stalls_Percent_6_Bucket_4: 24158
Critical_ROB_Stalls_Percent_6_Bucket_5: 117262
Non-critical_ROB_Stalls_Percent_6_Bucket_5: 17448
Critical_ROB_Stalls_Percent_6_Bucket_6: 217177
Non-critical_ROB_Stalls_Percent_6_Bucket_6: 28610
Critical_ROB_Stalls_Percent_7_Bucket_0: 504211
Non-critical_ROB_Stalls_Percent_7_Bucket_0: 158629
Critical_ROB_Stalls_Percent_7_Bucket_1: 586798
Non-critical_ROB_Stalls_Percent_7_Bucket_1: 84220
Critical_ROB_Stalls_Percent_7_Bucket_2: 263817
Non-critical_ROB_Stalls_Percent_7_Bucket_2: 37862
Critical_ROB_Stalls_Percent_7_Bucket_3: 130678
Non-critical_ROB_Stalls_Percent_7_Bucket_3: 21173
Critical_ROB_Stalls_Percent_7_Bucket_4: 112611
Non-critical_ROB_Stalls_Percent_7_Bucket_4: 14294
Critical_ROB_Stalls_Percent_7_Bucket_5: 124240
Non-critical_ROB_Stalls_Percent_7_Bucket_5: 10470
Critical_ROB_Stalls_Percent_7_Bucket_6: 228367
Non-critical_ROB_Stalls_Percent_7_Bucket_6: 17420
Critical_ROB_Stalls_Percent_8_Bucket_0: 552677
Non-critical_ROB_Stalls_Percent_8_Bucket_0: 110163
Critical_ROB_Stalls_Percent_8_Bucket_1: 614118
Non-critical_ROB_Stalls_Percent_8_Bucket_1: 56900
Critical_ROB_Stalls_Percent_8_Bucket_2: 276343
Non-critical_ROB_Stalls_Percent_8_Bucket_2: 25336
Critical_ROB_Stalls_Percent_8_Bucket_3: 138248
Non-critical_ROB_Stalls_Percent_8_Bucket_3: 13603
Critical_ROB_Stalls_Percent_8_Bucket_4: 118209
Non-critical_ROB_Stalls_Percent_8_Bucket_4: 8696
Critical_ROB_Stalls_Percent_8_Bucket_5: 129359
Non-critical_ROB_Stalls_Percent_8_Bucket_5: 5351
Critical_ROB_Stalls_Percent_8_Bucket_6: 236451
Non-critical_ROB_Stalls_Percent_8_Bucket_6: 9336
Average ROB occupancy Load Stall Begin: 108.359
Average ROB occupancy Load Stall End: 122.376
Min ROB occupancy Load Stall Begin: 1
Max ROB occupancy Load Stall Begin: 352
Min ROB occupancy Load Stall End: 1
Max ROB occupancy Load Stall End: 352
Average ROB occupancy Critical Load Stall Begin: -nan
Average ROB occupancy Critical Load Stall End: -nan
Min ROB occupancy Critical Load Stall Begin: 400
Max ROB occupancy Critical Load Stall Begin: 0
Min ROB occupancy Critical Load Stall End: 400
Max ROB occupancy Critical Load Stall End: 0
 ROB Load Stall Begin Bucket Count 0: 907128
 ROB Load Stall End Bucket Count 0: 662840
 ROB Critical Load Stall Begin Bucket Count 0: 0
 ROB Critical Load Stall End Bucket Count 0: 0
 ROB Load Stall Begin Bucket Count 1: 558074
 ROB Load Stall End Bucket Count 1: 671018
 ROB Critical Load Stall Begin Bucket Count 1: 0
 ROB Critical Load Stall End Bucket Count 1: 0
 ROB Load Stall Begin Bucket Count 2: 243408
 ROB Load Stall End Bucket Count 2: 301679
 ROB Critical Load Stall Begin Bucket Count 2: 0
 ROB Critical Load Stall End Bucket Count 2: 0
 ROB Load Stall Begin Bucket Count 3: 131207
 ROB Load Stall End Bucket Count 3: 151851
 ROB Critical Load Stall Begin Bucket Count 3: 0
 ROB Critical Load Stall End Bucket Count 3: 0
 ROB Load Stall Begin Bucket Count 4: 122418
 ROB Load Stall End Bucket Count 4: 126905
 ROB Critical Load Stall Begin Bucket Count 4: 0
 ROB Critical Load Stall End Bucket Count 4: 0
 ROB Load Stall Begin Bucket Count 5: 133361
 ROB Load Stall End Bucket Count 5: 134710
 ROB Critical Load Stall Begin Bucket Count 5: 0
 ROB Critical Load Stall End Bucket Count 5: 0
 ROB Load Stall Begin Bucket Count 6: 199194
 ROB Load Stall End Bucket Count 6: 245787
 ROB Critical Load Stall Begin Bucket Count 6: 0
 ROB Critical Load Stall End Bucket Count 6: 0
PIST Tag Read Accesses: 2855836
PIST Read Accesses: 1427918
PIST Tag Write Accesses: 2855836
PIST Write Accesses: 1427918
Criticality detector called times: 2108816
Max global_stall_cycles_count: 5706086
Threshold Modified: 0 times, factor: 0
Sturdy critical IP cache stats: 
 Unused entries: 0
CIC Tag Read Accesses: 0
CIC Read Accesses: 0
CIC Tag Write Accesses: 0
CIC Write Accesses: 0
Wobbly critical IP cache stats: 
 Unused entries: 107
CIC Tag Read Accesses: 135162775
CIC Read Accesses: 0
CIC Tag Write Accesses: 20421
CIC Write Accesses: 0
ITLB TOTAL     ACCESS:    8059152  HIT:    7929323  MISS:     129829  HIT %:     98.389  MISS %:    1.61095   MPKI: 2.59658
ITLB LOAD TRANSLATION ACCESS:    7296810  HIT:    7276152  MISS:      20658  HIT %:    99.7169  MISS %:    0.28311   MPKI: 0.41316
ITLB TRANSLATION FROM L1D PREFETCHER ACCESS:     762342  HIT:     653171  MISS:     109171  HIT %:    85.6795  MISS %:    14.3205   MPKI: 2.18342
ITLB PREFETCH  REQUESTED:          0  ISSUED:          0  USEFUL:      91599  USELESS:      17577
ITLB USEFUL LOAD PREFETCHES:      91599 PREFETCH ISSUED TO LOWER LEVEL:          0  ACCURACY: inf
ITLB TIMELY PREFETCHES:      91599 LATE PREFETCHES: 186 DROPPED PREFETCHES: 711
ITLB PREFETCHES SAME FILL-ORIGIN LEVEL: 0 DIFFERENT FILL-ORIGIN LEVEL: 0
ITLB AVERAGE MISS LATENCY: 70961.1 cycles
ITLB RQ	ACCESS:   10891181	FORWARD:          0	MERGED:    2822420	TO_CACHE:    8068761

DTLB TOTAL     ACCESS:    9715673  HIT:    9404555  MISS:     311118  HIT %:    96.7978  MISS %:    3.20223   MPKI: 6.22236
DTLB LOAD TRANSLATION ACCESS:    9715673  HIT:    9404555  MISS:     311118  HIT %:    96.7978  MISS %:    3.20223   MPKI: 6.22236
DTLB PREFETCH  REQUESTED:          0  ISSUED:          0  USEFUL:          0  USELESS:          0
DTLB USEFUL LOAD PREFETCHES:          0 PREFETCH ISSUED TO LOWER LEVEL:          0  ACCURACY: -nan
DTLB TIMELY PREFETCHES:          0 LATE PREFETCHES: 0 DROPPED PREFETCHES: 0
DTLB PREFETCHES SAME FILL-ORIGIN LEVEL: 0 DIFFERENT FILL-ORIGIN LEVEL: 0
DTLB AVERAGE MISS LATENCY: 20.2828 cycles
DTLB RQ	ACCESS:   11979066	FORWARD:          0	MERGED:    2249169	TO_CACHE:    9729897

STLB TOTAL     ACCESS:     440946  HIT:     410111  MISS:      30835  HIT %:    93.0071  MISS %:    6.99292   MPKI: 0.6167
STLB LOAD TRANSLATION ACCESS:     331590  HIT:     306064  MISS:      25526  HIT %:    92.3019  MISS %:    7.69806   MPKI: 0.51052
STLB TRANSLATION FROM L1D PREFETCHER ACCESS:     109356  HIT:     104047  MISS:       5309  HIT %:    95.1452  MISS %:    4.85479   MPKI: 0.10618
STLB PREFETCH  REQUESTED:          0  ISSUED:          0  USEFUL:       3109  USELESS:       2244
STLB USEFUL LOAD PREFETCHES:       3109 PREFETCH ISSUED TO LOWER LEVEL:          0  ACCURACY: inf
STLB TIMELY PREFETCHES:       3109 LATE PREFETCHES: 0 DROPPED PREFETCHES: 711
STLB PREFETCHES SAME FILL-ORIGIN LEVEL: 0 DIFFERENT FILL-ORIGIN LEVEL: 0
STLB AVERAGE MISS LATENCY: 130.989 cycles
STLB RQ	ACCESS:     441658	FORWARD:          0	MERGED:          0	TO_CACHE:     441658

STLB Hit, L1D data hit: 0
STLB Hit, L2C data hit: 0
STLB Hit, LLC data hit: 0
STLB Hit, LLC data miss: 0
STLB STLB hints to L2: 0
L1D TOTAL     ACCESS:   11591784  HIT:   11181758  MISS:     410026  HIT %:    96.4628  MISS %:    3.53721   MPKI: 8.20052
L1D LOAD      ACCESS:    6615142  HIT:    6301547  MISS:     313595  HIT %:    95.2594  MISS %:    4.74056   MPKI: 6.2719
L1D RFO       ACCESS:    4976642  HIT:    4880211  MISS:      96431  HIT %:    98.0623  MISS %:    1.93767   MPKI: 1.92862
L1D PREFETCH  REQUESTED:          0  ISSUED:          0  USEFUL:          0  USELESS:          0
L1D USEFUL LOAD PREFETCHES:          0 PREFETCH ISSUED TO LOWER LEVEL:          0  ACCURACY: -nan
L1D TIMELY PREFETCHES:          0 LATE PREFETCHES: 0 DROPPED PREFETCHES: 0
L1D PREFETCHES SAME FILL-ORIGIN LEVEL: 0 DIFFERENT FILL-ORIGIN LEVEL: 0
L1D AVERAGE MISS LATENCY: 126.14 cycles
L1D RQ	ACCESS:   10449041	FORWARD:          0	MERGED:    3697383	TO_CACHE:    6671291
L1D WQ	ACCESS:    5417473	FORWARD:      80367	MERGED:     109698	TO_CACHE:    5307775

L1D UNIQUE REGIONS ACCESSED: 0
L1D REGIONS CONFLICTS: 0
L1D Cross Page Prefetch Requests: 0
L1D Same Page Prefetch Requests: 0
L1D ROI Sum of L1D PQ occupancy: 0
L1D PREFETCHES PUSHED FROM L2C: 0
L1I TOTAL     ACCESS:   10850058  HIT:    9974188  MISS:     875870  HIT %:    91.9275  MISS %:    8.07249   MPKI: 17.5174
L1I LOAD      ACCESS:    9061071  HIT:    8997925  MISS:      63146  HIT %:    99.3031  MISS %:   0.696893   MPKI: 1.26292
L1I PREFETCH  ACCESS:    1788987  HIT:     976263  MISS:     812724  HIT %:    54.5707  MISS %:    45.4293   MPKI: 16.2545
L1I PREFETCH  REQUESTED:    1865665  ISSUED:    1862458  USEFUL:     606519  USELESS:     206269
L1I USEFUL LOAD PREFETCHES:     606519 PREFETCH ISSUED TO LOWER LEVEL:     822201  ACCURACY: 73.7677
L1I TIMELY PREFETCHES:     606519 LATE PREFETCHES: 9479 DROPPED PREFETCHES: 2182
L1I PREFETCHES SAME FILL-ORIGIN LEVEL: 822201 DIFFERENT FILL-ORIGIN LEVEL: 0
L1I AVERAGE MISS LATENCY: 516604 cycles
L1I RQ	ACCESS:   13283102	FORWARD:          0	MERGED:    4212964	TO_CACHE:    9070138
L1I PQ	ACCESS:    1862458	FORWARD:          0	MERGED:      41415	TO_CACHE:    1821043

BTB TOTAL     ACCESS:    3947211  HIT:    3651662  MISS:     295549  HIT %:    92.5125  MISS %:    7.48754   MPKI: 5.91098
BTB BRANCH_DIRECT_JUMP	ACCESS:     347939  HIT:     337009  MISS:      10930
BTB BRANCH_INDIRECT	ACCESS:     148210  HIT:      89092  MISS:      59118
BTB BRANCH_CONDITIONAL	ACCESS:    2238088  HIT:    2191941  MISS:      46147
BTB BRANCH_DIRECT_CALL	ACCESS:     570721  HIT:     551837  MISS:      18884
BTB BRANCH_INDIRECT_CALL	ACCESS:      25133  HIT:      23193  MISS:       1940
BTB BRANCH_RETURN	ACCESS:     617120  HIT:     458590  MISS:     158530
BTB BRANCH_OTHER ACCESS:          0  HIT:          0  MISS:          0

L2C TOTAL     ACCESS:    1644431  HIT:    1150750  MISS:     493681  HIT %:    69.9786  MISS %:    30.0214   MPKI: 9.87362
L2C LOAD      ACCESS:     367257  HIT:     153152  MISS:     214105  HIT %:    41.7016  MISS %:    58.2984   MPKI: 4.2821
L2C DATA LOAD MPKI: 3.8345
L2C INSTRUCTION LOAD MPKI: 0.4476
L2C RFO       ACCESS:      96430  HIT:      16458  MISS:      79972  HIT %:    17.0673  MISS %:    82.9327   MPKI: 1.59944
L2C PREFETCH  ACCESS:     935322  HIT:     767719  MISS:     167603  HIT %:    82.0807  MISS %:    17.9193   MPKI: 3.35206
L2C DATA PREFETCH MPKI: 0.56226
L2C INSTRUCTION PREFETCH MPKI: 2.7898
L2C WRITEBACK ACCESS:     204314  HIT:     194473  MISS:       9841  HIT %:    95.1834  MISS %:    4.81661   MPKI: 0.19682
L2C LOAD TRANSLATION ACCESS:      33749  HIT:      14801  MISS:      18948  HIT %:    43.8561  MISS %:    56.1439   MPKI: 0.37896
L2C TRANSLATION FROM L1D PREFETCHER ACCESS:       7359  HIT:       4147  MISS:       3212  HIT %:    56.3528  MISS %:    43.6472   MPKI: 0.06424
L2C PREFETCH  REQUESTED:     172038  ISSUED:     172038  USEFUL:      11107  USELESS:     161419
L2C USEFUL LOAD PREFETCHES:      11107 PREFETCH ISSUED TO LOWER LEVEL:     170966  ACCURACY: 6.49661
L2C TIMELY PREFETCHES:      11107 LATE PREFETCHES: 518 DROPPED PREFETCHES: 0
L2C PREFETCHES SAME FILL-ORIGIN LEVEL: 29552 DIFFERENT FILL-ORIGIN LEVEL: 2845
L2C AVERAGE MISS LATENCY: 116.917 cycles
L2C RQ	ACCESS:     504800	FORWARD:          0	MERGED:          0	TO_CACHE:     504794
L2C WQ	ACCESS:     204314	FORWARD:          6	MERGED:          0	TO_CACHE:     204314
L2C PQ	ACCESS:     994235	FORWARD:          0	MERGED:      54257	TO_CACHE:     939978

L2C Instructions Evicting Data 99348
L2C Translations Evicting Data 13820
L2C Data Evicting Data 188169
L2C Instructions Evicting Instructions 55728
L2C Translations Evicting Instructions 7304
L2C Data Evicting Instructions 97708
L2C Instructions Evicting Translations 6794
L2C Translations Evicting Translations 1036
L2C Data Evicting Translations 13933
L2C Dense regions hint from L2: 0
PSCL5 TOTAL     ACCESS:      31546  HIT:      31546  MISS:          0  HIT %:        100  MISS %:          0   MPKI: 0
PSCL5 LOAD TRANSLATION ACCESS:      25526  HIT:      25526  MISS:          0  HIT %:        100  MISS %:          0   MPKI: 0
PSCL5 TRANSLATION FROM L1D PREFETCHER ACCESS:       6020  HIT:       6020  MISS:          0  HIT %:        100  MISS %:          0   MPKI: 0
PSCL5 PREFETCH  REQUESTED:          0  ISSUED:          0  USEFUL:          0  USELESS:          0
PSCL5 USEFUL LOAD PREFETCHES:          0 PREFETCH ISSUED TO LOWER LEVEL:          0  ACCURACY: -nan
PSCL5 TIMELY PREFETCHES:          0 LATE PREFETCHES: 0 DROPPED PREFETCHES: 0
PSCL5 PREFETCHES SAME FILL-ORIGIN LEVEL: 0 DIFFERENT FILL-ORIGIN LEVEL: 0

PSCL4 TOTAL     ACCESS:      30782  HIT:      30692  MISS:         90  HIT %:    99.7076  MISS %:   0.292379   MPKI: 0.0018
PSCL4 LOAD TRANSLATION ACCESS:      25031  HIT:      24941  MISS:         90  HIT %:    99.6404  MISS %:   0.359554   MPKI: 0.0018
PSCL4 TRANSLATION FROM L1D PREFETCHER ACCESS:       5751  HIT:       5751  MISS:          0  HIT %:        100  MISS %:          0   MPKI: 0
PSCL4 PREFETCH  REQUESTED:          0  ISSUED:          0  USEFUL:          0  USELESS:          0
PSCL4 USEFUL LOAD PREFETCHES:          0 PREFETCH ISSUED TO LOWER LEVEL:          0  ACCURACY: -nan
PSCL4 TIMELY PREFETCHES:          0 LATE PREFETCHES: 0 DROPPED PREFETCHES: 0
PSCL4 PREFETCHES SAME FILL-ORIGIN LEVEL: 0 DIFFERENT FILL-ORIGIN LEVEL: 0

PSCL3 TOTAL     ACCESS:      31227  HIT:      31137  MISS:         90  HIT %:    99.7118  MISS %:   0.288212   MPKI: 0.0018
PSCL3 LOAD TRANSLATION ACCESS:      25476  HIT:      25386  MISS:         90  HIT %:    99.6467  MISS %:   0.353274   MPKI: 0.0018
PSCL3 TRANSLATION FROM L1D PREFETCHER ACCESS:       5751  HIT:       5751  MISS:          0  HIT %:        100  MISS %:          0   MPKI: 0
PSCL3 PREFETCH  REQUESTED:          0  ISSUED:          0  USEFUL:          0  USELESS:          0
PSCL3 USEFUL LOAD PREFETCHES:          0 PREFETCH ISSUED TO LOWER LEVEL:          0  ACCURACY: -nan
PSCL3 TIMELY PREFETCHES:          0 LATE PREFETCHES: 0 DROPPED PREFETCHES: 0
PSCL3 PREFETCHES SAME FILL-ORIGIN LEVEL: 0 DIFFERENT FILL-ORIGIN LEVEL: 0

PSCL2 TOTAL     ACCESS:      31171  HIT:      22373  MISS:       8798  HIT %:     71.775  MISS %:     28.225   MPKI: 0.17596
PSCL2 LOAD TRANSLATION ACCESS:      26226  HIT:      17428  MISS:       8798  HIT %:    66.4531  MISS %:    33.5469   MPKI: 0.17596
PSCL2 TRANSLATION FROM L1D PREFETCHER ACCESS:       4945  HIT:       4945  MISS:          0  HIT %:        100  MISS %:          0   MPKI: 0
PSCL2 PREFETCH  REQUESTED:          0  ISSUED:          0  USEFUL:          0  USELESS:          0
PSCL2 USEFUL LOAD PREFETCHES:          0 PREFETCH ISSUED TO LOWER LEVEL:          0  ACCURACY: -nan
PSCL2 TIMELY PREFETCHES:          0 LATE PREFETCHES: 0 DROPPED PREFETCHES: 0
PSCL2 PREFETCHES SAME FILL-ORIGIN LEVEL: 0 DIFFERENT FILL-ORIGIN LEVEL: 0

LLC TOTAL     ACCESS:     650312  HIT:     411699  MISS:     238613  HIT %:    63.3079  MISS %:    36.6921   MPKI: 4.77226
LLC LOAD      ACCESS:     213587  HIT:      88306  MISS:     125281  HIT %:    41.3443  MISS %:    58.6557   MPKI: 2.50562
LLC RFO       ACCESS:      79970  HIT:       6124  MISS:      73846  HIT %:    7.65787  MISS %:    92.3421   MPKI: 1.47692
LLC PREFETCH  ACCESS:     170869  HIT:     147217  MISS:      23652  HIT %:    86.1578  MISS %:    13.8422   MPKI: 0.47304
LLC WRITEBACK ACCESS:     163726  HIT:     156001  MISS:       7725  HIT %:    95.2818  MISS %:    4.71825   MPKI: 0.1545
LLC LOAD TRANSLATION ACCESS:      18948  HIT:      11125  MISS:       7823  HIT %:    58.7133  MISS %:    41.2867   MPKI: 0.15646
LLC TRANSLATION FROM L1D PREFETCHER ACCESS:       3212  HIT:       2926  MISS:        286  HIT %:    91.0959  MISS %:    8.90411   MPKI: 0.00572
LLC PREFETCH  REQUESTED:          0  ISSUED:          0  USEFUL:       1372  USELESS:      21898
LLC USEFUL LOAD PREFETCHES:       1372 PREFETCH ISSUED TO LOWER LEVEL:      23666  ACCURACY: 5.79735
LLC TIMELY PREFETCHES:       1372 LATE PREFETCHES: 14 DROPPED PREFETCHES: 0
LLC PREFETCHES SAME FILL-ORIGIN LEVEL: 1183 DIFFERENT FILL-ORIGIN LEVEL: 0
LLC AVERAGE MISS LATENCY: 181.098 cycles
LLC RQ	ACCESS:     315718	FORWARD:          0	MERGED:          0	TO_CACHE:     315716
LLC WQ	ACCESS:     163726	FORWARD:          2	MERGED:          0	TO_CACHE:     163726
LLC PQ	ACCESS:     170966	FORWARD:          0	MERGED:         67	TO_CACHE:     170899

LLC Dense regions hint to LLC: 0

RAW hits: 1283127
Loads Generated: 11732168
Loads sent to L1D: 10449041
Stores Generated: 5417460
Stores sent to L1D: 5417473
Major fault: 0 Minor fault: 17223
Allocated PAGES: 17223
I-Shadow cache 408 bytes
Touched + WorthPF tables 6144 bytes 
MMA filter 174 bytes 
FNL filter 272 bytes 
TOTAL PREFETCHER STORAGE SIZE: 25174 bytes
CPU 0 L1I next line prefetcher final stats
------------------
Depth Distribution
------------------
depth 0: 17493
depth 1: 117977
depth 2: 181965
depth 3: 59066
depth 4: 6256
depth 5: 4423
depth 6: 2074
depth 7: 2004
depth 8: 1832
depth 9: 1033
depth 10: 19
depth 11: 9
depth 12: 0
depth 13: 0
depth 14: 0
depth 15: 0
depth 16: 0
depth 17: 0
depth 18: 0
depth 19: 0
depth 20: 0
depth 21: 0
depth 22: 0
depth 23: 0
depth 24: 0
depth 25: 0
depth 26: 0
depth 27: 0
depth 28: 0
depth 29: 0
Total: 394151
------------------
ST read accesses: 144637
ST write accesses: 61281
PT read accesses: 3227556
PT write accesses: 163361
FILTER read accesses: 1341762
FILTER write accesses: 1279261
GHR read accesses: 604059
GHR write accesses: 21526
PERC read accesses: 23905944
PERC write accesses: 2052411
GHR counter read accesses: 411836
GHR counter write accesses: 491615
GHR ip read accesses: 1245579
GHR ip write accesses: 823672
ST tag read accesses: 6997520
ST tag write accesses: 1183859

DRAM Statistics
 CHANNEL 0
 RQ ROW_BUFFER_HIT:      57471  ROW_BUFFER_MISS:     173412
 DBUS_CONGESTED:         51
 WQ ROW_BUFFER_HIT:      26873  ROW_BUFFER_MISS:     128127  FULL:          0

 AVG_CONGESTED_CYCLE: 4
 All warmup complete: 2
Channel 0 Bank busy for read cycles: 0
Channel 0 Bank busy for write cycles: 0
Channel 0
Rank 0
0banks busy for read cycles: 36724287
0banks busy for write cycles: 63671
1banks busy for read cycles: 14622507
1banks busy for write cycles: 8797497
2banks busy for read cycles: 3308430
2banks busy for write cycles: 2958848
3banks busy for read cycles: 471061
3banks busy for write cycles: 725759
4banks busy for read cycles: 191553
4banks busy for write cycles: 317297
5banks busy for read cycles: 116093
5banks busy for write cycles: 169594
6banks busy for read cycles: 80352
6banks busy for write cycles: 117339
7banks busy for read cycles: 93311
7banks busy for write cycles: 157088
8banks busy for read cycles: 482164
8banks busy for write cycles: 847547

CPU 0 Branch Prediction Accuracy: 99.5889% MPKI: 0.70108 Average ROB Occupancy at Mispredict: 101.834
Branch types
NOT_BRANCH: 41473363 82.9467%
BRANCH_DIRECT_JUMP: 347939 0.695878%
BRANCH_INDIRECT: 148210 0.29642%
BRANCH_CONDITIONAL: 6817243 13.6345%
BRANCH_DIRECT_CALL: 570721 1.14144%
BRANCH_INDIRECT_CALL: 25133 0.050266%
BRANCH_RETURN: 617120 1.23424%
BRANCH_OTHER: 0 0%

DRAM PAGES: 1048576
Allocated PAGES: 17223
