
*** ChampSim Multicore Out-of-Order Simulator ***

Warmup Instructions: 50000000
Simulation Instructions: 50000000
Number of CPUs: 1
LLC sets: 2048
LLC ways: 16
Off-chip DRAM Size: 4096 MB Channels: 1 Width: 64-bit Data Rate: 6400 MT/s
CPU 0 runs ../IPC-traces//server_025.champsimtrace.xz
.xz
NUM_OF_IPS_IN_CRITICAL_IP_TRAINING: 64
NUM_OF_CRITICAL_IP_TRAINING_TABLE_WAYS: 2
NUM_OF_CRITICAL_IP_TRAINING_TABLE_SETS: 32
WOBBLY_CRITICAL_IP_CACHE_SETS: 32
WOBBLY_CRITICAL_IP_CACHE_WAYS: 4
BTB has LRU replacement policy
ITLB has LRU replacement policy
DTLB has LRU replacement policy
STLB has LRU replacement policy
CPU 0 L1I next line prefetcher
L1I has LRU replacement policy
IP Table Entries: 64
L1D has LRU replacement policy
IP_Table L2 entries: 64
Initialize SRRIP state for L2C
Initialize DRRIP state for LLC
Heartbeat CPU 0 instructions: 10000000 cycles: 2891615 heartbeat IPC: 3.45828 cumulative IPC: 3.45828 (Simulation time: 0 hr 3 min 51 sec) 
Heartbeat CPU 0 instructions: 20000003 cycles: 5781125 heartbeat IPC: 3.4608 cumulative IPC: 3.45953 (Simulation time: 0 hr 7 min 7 sec) 
Heartbeat CPU 0 instructions: 30000001 cycles: 8667003 heartbeat IPC: 3.46515 cumulative IPC: 3.4614 (Simulation time: 0 hr 9 min 40 sec) 
Heartbeat CPU 0 instructions: 40000001 cycles: 11555651 heartbeat IPC: 3.46183 cumulative IPC: 3.46151 (Simulation time: 0 hr 12 min 13 sec) 
Heartbeat CPU 0 instructions: 50000001 cycles: 14442999 heartbeat IPC: 3.46339 cumulative IPC: 3.46188 (Simulation time: 0 hr 14 min 41 sec) 

Warmup complete CPU 0 instructions: 50000001 cycles: 14442999 (Simulation time: 0 hr 14 min 41 sec) 

% increase in all ip prefetch 417.404
% increase in all ip prefetch -0.817352
Heartbeat CPU 0 instructions: 60000000 cycles: 30837339 heartbeat IPC: 0.609967 cumulative IPC: 0.609967 (Simulation time: 0 hr 17 min 0 sec) 
Heartbeat CPU 0 instructions: 70000000 cycles: 47272741 heartbeat IPC: 0.608443 cumulative IPC: 0.609204 (Simulation time: 0 hr 19 min 17 sec) 
Heartbeat CPU 0 instructions: 80000002 cycles: 63603935 heartbeat IPC: 0.612325 cumulative IPC: 0.610241 (Simulation time: 0 hr 21 min 32 sec) 
Heartbeat CPU 0 instructions: 90000002 cycles: 78611559 heartbeat IPC: 0.666328 cumulative IPC: 0.623358 (Simulation time: 0 hr 23 min 45 sec) 
Heartbeat CPU 0 instructions: 100000003 cycles: 92435863 heartbeat IPC: 0.723364 cumulative IPC: 0.641084 (Simulation time: 0 hr 26 min 2 sec) 
Finished CPU 0 instructions: 50000002 cycles: 77992864 cumulative IPC: 0.641084 (Simulation time: 0 hr 26 min 2 sec) 

ChampSim completed all CPUs

Region of Interest Statistics

CPU 0 cumulative IPC: 0.641084 instructions: 50000002 cycles: 77992864

CPU 0 Average Load ROB stall cycles: 6.19684e+06
CPU 0 Fraction of times ROB stalled by Loads: 11.7126
CPU 0 Percentage of Load stall cycles in Total stall cycles: 9.57486e+07
 Total stall cycles: 46381091
 Total load stall cycles: 44409258936084
CPU 0 NUM of IPS identified critical: 7
CPU 0 Num of Load IPs stalling ROB: 4908
Threshold modification factor: -1
Max PIST entries: 64
Min PIST entries: 0
Avg PIST entries: 31.08
Trouble in retire width: 0.808237
MaC = Marked as critical.
lt_50_percent_before_Mac: 7
gt_90_percent_before_Mac: 0
gt_75_percent_before_Mac: 0
gt_50_percent_before_Mac: 0
stall_proportion_bin_same_before_after: 0
stall_proportion_bin_lower_before_after: 0
stall_proportion_bin_upper_before_after: 0
average_stall_proportion_before: 0.185395
average_stall_proportion_after: 0.193607
Critical IP stalls, total frequency: 34723
Non-critical IP stalls, total frequency: 701404
Critical_IP_ROB_Stalls_Bucket_0: 7117
Non-critical_IP_ROB_Stalls_Bucket_0: 649978
Critical_IP_ROB_Stalls_Bucket_1: 22590
Non-critical_IP_ROB_Stalls_Bucket_1: 102357
Critical_IP_ROB_Stalls_Bucket_2: 2975
Non-critical_IP_ROB_Stalls_Bucket_2: 37318
Critical_IP_ROB_Stalls_Bucket_3: 1484
Non-critical_IP_ROB_Stalls_Bucket_3: 10750
Critical_IP_ROB_Stalls_Bucket_4: 247
Non-critical_IP_ROB_Stalls_Bucket_4: 3144
Critical_IP_ROB_Stalls_Bucket_5: 9
Non-critical_IP_ROB_Stalls_Bucket_5: 856
Critical_IP_ROB_Stalls_Bucket_6: 301
Non-critical_IP_ROB_Stalls_Bucket_6: 250
0 => IPs accounting for >50 percent of stalls, 1 => 55, 2 => 60, 3 => 65 and so on till 90.
percent50: 50.0527 num IPs:199
percent55: 55.0646 num IPs:260
percent60: 60.0071 num IPs:329
percent65: 65.0389 num IPs:412
percent70: 70.0313 num IPs:501
percent75: 75.0403 num IPs:607
percent80: 80.0257 num IPs:737
percent85: 85.0083 num IPs:897
percent90: 90.0187 num IPs:1084
Critical_ROB_Stalls_Percent_0_Bucket_0: 248321
Non-critical_ROB_Stalls_Percent_0_Bucket_0: 408774
Critical_ROB_Stalls_Percent_0_Bucket_1: 78019
Non-critical_ROB_Stalls_Percent_0_Bucket_1: 46928
Critical_ROB_Stalls_Percent_0_Bucket_2: 29757
Non-critical_ROB_Stalls_Percent_0_Bucket_2: 10536
Critical_ROB_Stalls_Percent_0_Bucket_3: 9254
Non-critical_ROB_Stalls_Percent_0_Bucket_3: 2980
Critical_ROB_Stalls_Percent_0_Bucket_4: 2564
Non-critical_ROB_Stalls_Percent_0_Bucket_4: 827
Critical_ROB_Stalls_Percent_0_Bucket_5: 482
Non-critical_ROB_Stalls_Percent_0_Bucket_5: 383
Critical_ROB_Stalls_Percent_0_Bucket_6: 54
Non-critical_ROB_Stalls_Percent_0_Bucket_6: 497
Critical_ROB_Stalls_Percent_1_Bucket_0: 282251
Non-critical_ROB_Stalls_Percent_1_Bucket_0: 374844
Critical_ROB_Stalls_Percent_1_Bucket_1: 80098
Non-critical_ROB_Stalls_Percent_1_Bucket_1: 44849
Critical_ROB_Stalls_Percent_1_Bucket_2: 30329
Non-critical_ROB_Stalls_Percent_1_Bucket_2: 9964
Critical_ROB_Stalls_Percent_1_Bucket_3: 9423
Non-critical_ROB_Stalls_Percent_1_Bucket_3: 2811
Critical_ROB_Stalls_Percent_1_Bucket_4: 2697
Non-critical_ROB_Stalls_Percent_1_Bucket_4: 694
Critical_ROB_Stalls_Percent_1_Bucket_5: 493
Non-critical_ROB_Stalls_Percent_1_Bucket_5: 372
Critical_ROB_Stalls_Percent_1_Bucket_6: 54
Non-critical_ROB_Stalls_Percent_1_Bucket_6: 497
Critical_ROB_Stalls_Percent_2_Bucket_0: 311695
Non-critical_ROB_Stalls_Percent_2_Bucket_0: 345400
Critical_ROB_Stalls_Percent_2_Bucket_1: 85341
Non-critical_ROB_Stalls_Percent_2_Bucket_1: 39606
Critical_ROB_Stalls_Percent_2_Bucket_2: 31723
Non-critical_ROB_Stalls_Percent_2_Bucket_2: 8570
Critical_ROB_Stalls_Percent_2_Bucket_3: 9598
Non-critical_ROB_Stalls_Percent_2_Bucket_3: 2636
Critical_ROB_Stalls_Percent_2_Bucket_4: 2764
Non-critical_ROB_Stalls_Percent_2_Bucket_4: 627
Critical_ROB_Stalls_Percent_2_Bucket_5: 544
Non-critical_ROB_Stalls_Percent_2_Bucket_5: 321
Critical_ROB_Stalls_Percent_2_Bucket_6: 63
Non-critical_ROB_Stalls_Percent_2_Bucket_6: 488
Critical_ROB_Stalls_Percent_3_Bucket_0: 344841
Non-critical_ROB_Stalls_Percent_3_Bucket_0: 312254
Critical_ROB_Stalls_Percent_3_Bucket_1: 88698
Non-critical_ROB_Stalls_Percent_3_Bucket_1: 36249
Critical_ROB_Stalls_Percent_3_Bucket_2: 32048
Non-critical_ROB_Stalls_Percent_3_Bucket_2: 8245
Critical_ROB_Stalls_Percent_3_Bucket_3: 9811
Non-critical_ROB_Stalls_Percent_3_Bucket_3: 2423
Critical_ROB_Stalls_Percent_3_Bucket_4: 2764
Non-critical_ROB_Stalls_Percent_3_Bucket_4: 627
Critical_ROB_Stalls_Percent_3_Bucket_5: 544
Non-critical_ROB_Stalls_Percent_3_Bucket_5: 321
Critical_ROB_Stalls_Percent_3_Bucket_6: 63
Non-critical_ROB_Stalls_Percent_3_Bucket_6: 488
Critical_ROB_Stalls_Percent_4_Bucket_0: 377636
Non-critical_ROB_Stalls_Percent_4_Bucket_0: 279459
Critical_ROB_Stalls_Percent_4_Bucket_1: 91643
Non-critical_ROB_Stalls_Percent_4_Bucket_1: 33304
Critical_ROB_Stalls_Percent_4_Bucket_2: 32595
Non-critical_ROB_Stalls_Percent_4_Bucket_2: 7698
Critical_ROB_Stalls_Percent_4_Bucket_3: 10187
Non-critical_ROB_Stalls_Percent_4_Bucket_3: 2047
Critical_ROB_Stalls_Percent_4_Bucket_4: 2818
Non-critical_ROB_Stalls_Percent_4_Bucket_4: 573
Critical_ROB_Stalls_Percent_4_Bucket_5: 568
Non-critical_ROB_Stalls_Percent_4_Bucket_5: 297
Critical_ROB_Stalls_Percent_4_Bucket_6: 72
Non-critical_ROB_Stalls_Percent_4_Bucket_6: 479
Critical_ROB_Stalls_Percent_5_Bucket_0: 409959
Non-critical_ROB_Stalls_Percent_5_Bucket_0: 247136
Critical_ROB_Stalls_Percent_5_Bucket_1: 95232
Non-critical_ROB_Stalls_Percent_5_Bucket_1: 29715
Critical_ROB_Stalls_Percent_5_Bucket_2: 33012
Non-critical_ROB_Stalls_Percent_5_Bucket_2: 7281
Critical_ROB_Stalls_Percent_5_Bucket_3: 10322
Non-critical_ROB_Stalls_Percent_5_Bucket_3: 1912
Critical_ROB_Stalls_Percent_5_Bucket_4: 2887
Non-critical_ROB_Stalls_Percent_5_Bucket_4: 504
Critical_ROB_Stalls_Percent_5_Bucket_5: 602
Non-critical_ROB_Stalls_Percent_5_Bucket_5: 263
Critical_ROB_Stalls_Percent_5_Bucket_6: 378
Non-critical_ROB_Stalls_Percent_5_Bucket_6: 173
Critical_ROB_Stalls_Percent_6_Bucket_0: 440711
Non-critical_ROB_Stalls_Percent_6_Bucket_0: 216384
Critical_ROB_Stalls_Percent_6_Bucket_1: 99907
Non-critical_ROB_Stalls_Percent_6_Bucket_1: 25040
Critical_ROB_Stalls_Percent_6_Bucket_2: 34034
Non-critical_ROB_Stalls_Percent_6_Bucket_2: 6259
Critical_ROB_Stalls_Percent_6_Bucket_3: 10517
Non-critical_ROB_Stalls_Percent_6_Bucket_3: 1717
Critical_ROB_Stalls_Percent_6_Bucket_4: 2913
Non-critical_ROB_Stalls_Percent_6_Bucket_4: 478
Critical_ROB_Stalls_Percent_6_Bucket_5: 614
Non-critical_ROB_Stalls_Percent_6_Bucket_5: 251
Critical_ROB_Stalls_Percent_6_Bucket_6: 395
Non-critical_ROB_Stalls_Percent_6_Bucket_6: 156
Critical_ROB_Stalls_Percent_7_Bucket_0: 472115
Non-critical_ROB_Stalls_Percent_7_Bucket_0: 184980
Critical_ROB_Stalls_Percent_7_Bucket_1: 104031
Non-critical_ROB_Stalls_Percent_7_Bucket_1: 20916
Critical_ROB_Stalls_Percent_7_Bucket_2: 34788
Non-critical_ROB_Stalls_Percent_7_Bucket_2: 5505
Critical_ROB_Stalls_Percent_7_Bucket_3: 10831
Non-critical_ROB_Stalls_Percent_7_Bucket_3: 1403
Critical_ROB_Stalls_Percent_7_Bucket_4: 2948
Non-critical_ROB_Stalls_Percent_7_Bucket_4: 443
Critical_ROB_Stalls_Percent_7_Bucket_5: 630
Non-critical_ROB_Stalls_Percent_7_Bucket_5: 235
Critical_ROB_Stalls_Percent_7_Bucket_6: 426
Non-critical_ROB_Stalls_Percent_7_Bucket_6: 125
Critical_ROB_Stalls_Percent_8_Bucket_0: 507078
Non-critical_ROB_Stalls_Percent_8_Bucket_0: 150017
Critical_ROB_Stalls_Percent_8_Bucket_1: 105461
Non-critical_ROB_Stalls_Percent_8_Bucket_1: 19486
Critical_ROB_Stalls_Percent_8_Bucket_2: 35163
Non-critical_ROB_Stalls_Percent_8_Bucket_2: 5130
Critical_ROB_Stalls_Percent_8_Bucket_3: 10947
Non-critical_ROB_Stalls_Percent_8_Bucket_3: 1287
Critical_ROB_Stalls_Percent_8_Bucket_4: 2948
Non-critical_ROB_Stalls_Percent_8_Bucket_4: 443
Critical_ROB_Stalls_Percent_8_Bucket_5: 630
Non-critical_ROB_Stalls_Percent_8_Bucket_5: 235
Critical_ROB_Stalls_Percent_8_Bucket_6: 426
Non-critical_ROB_Stalls_Percent_8_Bucket_6: 125
Average ROB occupancy Load Stall Begin: 32.4139
Average ROB occupancy Load Stall End: 36.6396
Min ROB occupancy Load Stall Begin: 1
Max ROB occupancy Load Stall Begin: 351
Min ROB occupancy Load Stall End: 1
Max ROB occupancy Load Stall End: 352
Average ROB occupancy Critical Load Stall Begin: 77.646
Average ROB occupancy Critical Load Stall End: 85.169
Min ROB occupancy Critical Load Stall Begin: 3
Max ROB occupancy Critical Load Stall Begin: 351
Min ROB occupancy Critical Load Stall End: 3
Max ROB occupancy Critical Load Stall End: 352
 ROB Load Stall Begin Bucket Count 0: 683062
 ROB Load Stall End Bucket Count 0: 657095
 ROB Critical Load Stall Begin Bucket Count 0: 5124
 ROB Critical Load Stall End Bucket Count 0: 4631
 ROB Load Stall Begin Bucket Count 1: 105950
 ROB Load Stall End Bucket Count 1: 124947
 ROB Critical Load Stall Begin Bucket Count 1: 20191
 ROB Critical Load Stall End Bucket Count 1: 20477
 ROB Load Stall Begin Bucket Count 2: 35482
 ROB Load Stall End Bucket Count 2: 40293
 ROB Critical Load Stall Begin Bucket Count 2: 2930
 ROB Critical Load Stall End Bucket Count 2: 2646
 ROB Load Stall Begin Bucket Count 3: 10626
 ROB Load Stall End Bucket Count 3: 12234
 ROB Critical Load Stall Begin Bucket Count 3: 929
 ROB Critical Load Stall End Bucket Count 3: 1337
 ROB Load Stall Begin Bucket Count 4: 2936
 ROB Load Stall End Bucket Count 4: 3391
 ROB Critical Load Stall Begin Bucket Count 4: 140
 ROB Critical Load Stall End Bucket Count 4: 218
 ROB Load Stall Begin Bucket Count 5: 805
 ROB Load Stall End Bucket Count 5: 865
 ROB Critical Load Stall Begin Bucket Count 5: 5
 ROB Critical Load Stall End Bucket Count 5: 5
 ROB Load Stall Begin Bucket Count 6: 515
 ROB Load Stall End Bucket Count 6: 551
 ROB Critical Load Stall Begin Bucket Count 6: 255
 ROB Critical Load Stall End Bucket Count 6: 260
PIST Tag Read Accesses: 212870
PIST Read Accesses: 106435
PIST Tag Write Accesses: 212870
PIST Write Accesses: 106435
Criticality detector called times: 352200
Max global_stall_cycles_count: 227400
Threshold Modified: 1 times, factor: -1
ITLB TOTAL     ACCESS:    9968882  HIT:    9381107  MISS:     587775  HIT %:    94.1039  MISS %:     5.8961   MPKI: 11.7555
ITLB LOAD TRANSLATION ACCESS:    8170403  HIT:    8090929  MISS:      79474  HIT %:    99.0273  MISS %:   0.972706   MPKI: 1.58948
ITLB TRANSLATION FROM L1D PREFETCHER ACCESS:    1798479  HIT:    1290178  MISS:     508301  HIT %:    71.7372  MISS %:    28.2628   MPKI: 10.166
ITLB PREFETCH  REQUESTED:          0  ISSUED:          0  USEFUL:     411703  USELESS:      96598
ITLB USEFUL LOAD PREFETCHES:     411703 PREFETCH ISSUED TO LOWER LEVEL:          0  ACCURACY: inf
ITLB TIMELY PREFETCHES:     411703 LATE PREFETCHES: 156 DROPPED PREFETCHES: 3415
ITLB PREFETCHES SAME FILL-ORIGIN LEVEL: 0 DIFFERENT FILL-ORIGIN LEVEL: 0
ITLB AVERAGE MISS LATENCY: 10623.9 cycles
ITLB RQ	ACCESS:   14613708	FORWARD:          0	MERGED:    4602851	TO_CACHE:   10010857

DTLB TOTAL     ACCESS:   11430222  HIT:   10977872  MISS:     452350  HIT %:    96.0425  MISS %:    3.95749   MPKI: 9.047
DTLB LOAD TRANSLATION ACCESS:   11430222  HIT:   10977872  MISS:     452350  HIT %:    96.0425  MISS %:    3.95749   MPKI: 9.047
DTLB PREFETCH  REQUESTED:          0  ISSUED:          0  USEFUL:          0  USELESS:          0
DTLB USEFUL LOAD PREFETCHES:          0 PREFETCH ISSUED TO LOWER LEVEL:          0  ACCURACY: -nan
DTLB TIMELY PREFETCHES:          0 LATE PREFETCHES: 0 DROPPED PREFETCHES: 0
DTLB PREFETCHES SAME FILL-ORIGIN LEVEL: 0 DIFFERENT FILL-ORIGIN LEVEL: 0
DTLB AVERAGE MISS LATENCY: 9.32851 cycles
DTLB RQ	ACCESS:   14977554	FORWARD:          0	MERGED:    3524232	TO_CACHE:   11453322

STLB TOTAL     ACCESS:    1289705  HIT:    1287525  MISS:       2180  HIT %:     99.831  MISS %:   0.169031   MPKI: 0.0436
STLB LOAD TRANSLATION ACCESS:     531668  HIT:     529757  MISS:       1911  HIT %:    99.6406  MISS %:   0.359435   MPKI: 0.03822
STLB TRANSLATION FROM L1D PREFETCHER ACCESS:     758037  HIT:     757768  MISS:        269  HIT %:    99.9645  MISS %:  0.0354864   MPKI: 0.00538
STLB PREFETCH  REQUESTED:          0  ISSUED:          0  USEFUL:        245  USELESS:         24
STLB USEFUL LOAD PREFETCHES:        245 PREFETCH ISSUED TO LOWER LEVEL:          0  ACCURACY: inf
STLB TIMELY PREFETCHES:        245 LATE PREFETCHES: 0 DROPPED PREFETCHES: 3415
STLB PREFETCHES SAME FILL-ORIGIN LEVEL: 0 DIFFERENT FILL-ORIGIN LEVEL: 0
STLB AVERAGE MISS LATENCY: 79.0413 cycles
STLB RQ	ACCESS:    1368930	FORWARD:          0	MERGED:      75810	TO_CACHE:    1293120

STLB Hit, L1D data hit: 0
STLB Hit, L2C data hit: 0
STLB Hit, LLC data hit: 0
STLB Hit, LLC data miss: 0
STLB STLB hints to L2: 0
L1D TOTAL     ACCESS:   14824200  HIT:   13839384  MISS:     984816  HIT %:    93.3567  MISS %:     6.6433   MPKI: 19.6963
L1D LOAD      ACCESS:    8066441  HIT:    7430658  MISS:     635783  HIT %:    92.1182  MISS %:    7.88183   MPKI: 12.7157
L1D RFO       ACCESS:    6459197  HIT:    6205391  MISS:     253806  HIT %:    96.0706  MISS %:    3.92937   MPKI: 5.07612
L1D PREFETCH  ACCESS:     298562  HIT:     203335  MISS:      95227  HIT %:    68.1048  MISS %:    31.8952   MPKI: 1.90454
L1D PREFETCH  REQUESTED:     650852  ISSUED:     650846  USEFUL:      33065  USELESS:      62133
L1D USEFUL LOAD PREFETCHES:      33065 PREFETCH ISSUED TO LOWER LEVEL:     112812  ACCURACY: 29.3098
L1D TIMELY PREFETCHES:      33065 LATE PREFETCHES: 17472 DROPPED PREFETCHES: 0
L1D PREFETCHES SAME FILL-ORIGIN LEVEL: 112812 DIFFERENT FILL-ORIGIN LEVEL: 0
L1D AVERAGE MISS LATENCY: 921651 cycles
L1D RQ	ACCESS:   11573123	FORWARD:          0	MERGED:    3327243	TO_CACHE:    8093929
L1D WQ	ACCESS:    6957599	FORWARD:     152017	MERGED:      73974	TO_CACHE:    6883625
L1D PQ	ACCESS:     325456	FORWARD:          0	MERGED:          0	TO_CACHE:     325390

L1D UNIQUE REGIONS ACCESSED: 0
L1D REGIONS CONFLICTS: 0
L1D Cross Page Prefetch Requests: 0
L1D Same Page Prefetch Requests: 702411
L1D ROI Sum of L1D PQ occupancy: 4199073
L1D PREFETCHES PUSHED FROM L2C: 0
L1I TOTAL     ACCESS:   14483997  HIT:   10858202  MISS:    3625795  HIT %:    74.9669  MISS %:    25.0331   MPKI: 72.5159
L1I LOAD      ACCESS:    9573808  HIT:    9340808  MISS:     233000  HIT %:    97.5663  MISS %:    2.43372   MPKI: 4.66
L1I PREFETCH  ACCESS:    4910189  HIT:    1517394  MISS:    3392795  HIT %:     30.903  MISS %:     69.097   MPKI: 67.8559
L1I PREFETCH  REQUESTED:    5144872  ISSUED:    5136136  USEFUL:    2310071  USELESS:    1082750
L1I USEFUL LOAD PREFETCHES:    2310071 PREFETCH ISSUED TO LOWER LEVEL:    3416634  ACCURACY: 67.6125
L1I TIMELY PREFETCHES:    2310071 LATE PREFETCHES: 23839 DROPPED PREFETCHES: 8489
L1I PREFETCHES SAME FILL-ORIGIN LEVEL: 3416634 DIFFERENT FILL-ORIGIN LEVEL: 0
L1I AVERAGE MISS LATENCY: 334378 cycles
L1I RQ	ACCESS:   13671585	FORWARD:          0	MERGED:    4076716	TO_CACHE:    9594869
L1I PQ	ACCESS:    5136136	FORWARD:          0	MERGED:     117297	TO_CACHE:    5018839

BTB TOTAL     ACCESS:    6187548  HIT:    4393594  MISS:    1793954  HIT %:     71.007  MISS %:     28.993   MPKI: 35.8791
BTB BRANCH_DIRECT_JUMP	ACCESS:     531697  HIT:     378294  MISS:     153403
BTB BRANCH_INDIRECT	ACCESS:     199023  HIT:     166589  MISS:      32434
BTB BRANCH_CONDITIONAL	ACCESS:    3068015  HIT:    2579394  MISS:     488621
BTB BRANCH_DIRECT_CALL	ACCESS:    1010905  HIT:     656135  MISS:     354770
BTB BRANCH_INDIRECT_CALL	ACCESS:     183501  HIT:     115238  MISS:      68263
BTB BRANCH_RETURN	ACCESS:    1194407  HIT:     497944  MISS:     696463
BTB BRANCH_OTHER ACCESS:          0  HIT:          0  MISS:          0

L2C TOTAL     ACCESS:    6812742  HIT:    5726191  MISS:    1086551  HIT %:    84.0512  MISS %:    15.9488   MPKI: 21.731
L2C LOAD      ACCESS:     827457  HIT:     651803  MISS:     175654  HIT %:    78.7718  MISS %:    21.2282   MPKI: 3.51308
L2C DATA LOAD MPKI: 2.5812
L2C INSTRUCTION LOAD MPKI: 0.93188
L2C RFO       ACCESS:     253693  HIT:     172474  MISS:      81219  HIT %:    67.9853  MISS %:    32.0147   MPKI: 1.62438
L2C PREFETCH  ACCESS:    5263641  HIT:    4476659  MISS:     786982  HIT %:    85.0487  MISS %:    14.9513   MPKI: 15.7396
L2C DATA PREFETCH MPKI: 6.34452
L2C INSTRUCTION PREFETCH MPKI: 9.39512
L2C WRITEBACK ACCESS:     461943  HIT:     421363  MISS:      40580  HIT %:    91.2154  MISS %:    8.78463   MPKI: 0.8116
L2C LOAD TRANSLATION ACCESS:       2055  HIT:        405  MISS:       1650  HIT %:     19.708  MISS %:     80.292   MPKI: 0.033
L2C TRANSLATION FROM L1D PREFETCHER ACCESS:       3953  HIT:       3487  MISS:        466  HIT %:    88.2115  MISS %:    11.7885   MPKI: 0.00932
L2C PREFETCH  REQUESTED:    3862017  ISSUED:    3862017  USEFUL:      31617  USELESS:     755886
L2C USEFUL LOAD PREFETCHES:      31617 PREFETCH ISSUED TO LOWER LEVEL:     789526  ACCURACY: 4.00455
L2C TIMELY PREFETCHES:      31617 LATE PREFETCHES: 2544 DROPPED PREFETCHES: 0
L2C PREFETCHES SAME FILL-ORIGIN LEVEL: 271219 DIFFERENT FILL-ORIGIN LEVEL: 0
L2C AVERAGE MISS LATENCY: 32.7186 cycles
L2C RQ	ACCESS:    1087173	FORWARD:          0	MERGED:          0	TO_CACHE:    1087158
L2C WQ	ACCESS:     461943	FORWARD:         22	MERGED:          0	TO_CACHE:     461943
L2C PQ	ACCESS:    7391463	FORWARD:          0	MERGED:    2107943	TO_CACHE:    5283513

L2C Instructions Evicting Data 270128
L2C Translations Evicting Data 1285
L2C Data Evicting Data 275908
L2C Instructions Evicting Instructions 245364
L2C Translations Evicting Instructions 799
L2C Data Evicting Instructions 250439
L2C Instructions Evicting Translations 858
L2C Translations Evicting Translations 32
L2C Data Evicting Translations 1158
L2C Dense regions hint from L2: 0
PSCL5 TOTAL     ACCESS:       5595  HIT:       5595  MISS:          0  HIT %:        100  MISS %:          0   MPKI: 0
PSCL5 LOAD TRANSLATION ACCESS:       1911  HIT:       1911  MISS:          0  HIT %:        100  MISS %:          0   MPKI: 0
PSCL5 TRANSLATION FROM L1D PREFETCHER ACCESS:       3684  HIT:       3684  MISS:          0  HIT %:        100  MISS %:          0   MPKI: 0
PSCL5 PREFETCH  REQUESTED:          0  ISSUED:          0  USEFUL:          0  USELESS:          0
PSCL5 USEFUL LOAD PREFETCHES:          0 PREFETCH ISSUED TO LOWER LEVEL:          0  ACCURACY: -nan
PSCL5 TIMELY PREFETCHES:          0 LATE PREFETCHES: 0 DROPPED PREFETCHES: 0
PSCL5 PREFETCHES SAME FILL-ORIGIN LEVEL: 0 DIFFERENT FILL-ORIGIN LEVEL: 0

PSCL4 TOTAL     ACCESS:       5094  HIT:       5081  MISS:         13  HIT %:    99.7448  MISS %:   0.255202   MPKI: 0.00026
PSCL4 LOAD TRANSLATION ACCESS:       1734  HIT:       1721  MISS:         13  HIT %:    99.2503  MISS %:   0.749712   MPKI: 0.00026
PSCL4 TRANSLATION FROM L1D PREFETCHER ACCESS:       3360  HIT:       3360  MISS:          0  HIT %:        100  MISS %:          0   MPKI: 0
PSCL4 PREFETCH  REQUESTED:          0  ISSUED:          0  USEFUL:          0  USELESS:          0
PSCL4 USEFUL LOAD PREFETCHES:          0 PREFETCH ISSUED TO LOWER LEVEL:          0  ACCURACY: -nan
PSCL4 TIMELY PREFETCHES:          0 LATE PREFETCHES: 0 DROPPED PREFETCHES: 0
PSCL4 PREFETCHES SAME FILL-ORIGIN LEVEL: 0 DIFFERENT FILL-ORIGIN LEVEL: 0

PSCL3 TOTAL     ACCESS:       5475  HIT:       5449  MISS:         26  HIT %:    99.5251  MISS %:   0.474886   MPKI: 0.00052
PSCL3 LOAD TRANSLATION ACCESS:       1868  HIT:       1842  MISS:         26  HIT %:    98.6081  MISS %:    1.39186   MPKI: 0.00052
PSCL3 TRANSLATION FROM L1D PREFETCHER ACCESS:       3607  HIT:       3607  MISS:          0  HIT %:        100  MISS %:          0   MPKI: 0
PSCL3 PREFETCH  REQUESTED:          0  ISSUED:          0  USEFUL:          0  USELESS:          0
PSCL3 USEFUL LOAD PREFETCHES:          0 PREFETCH ISSUED TO LOWER LEVEL:          0  ACCURACY: -nan
PSCL3 TIMELY PREFETCHES:          0 LATE PREFETCHES: 0 DROPPED PREFETCHES: 0
PSCL3 PREFETCHES SAME FILL-ORIGIN LEVEL: 0 DIFFERENT FILL-ORIGIN LEVEL: 0

PSCL2 TOTAL     ACCESS:       5356  HIT:       5223  MISS:        133  HIT %:    97.5168  MISS %:     2.4832   MPKI: 0.00266
PSCL2 LOAD TRANSLATION ACCESS:       1930  HIT:       1797  MISS:        133  HIT %:    93.1088  MISS %:    6.89119   MPKI: 0.00266
PSCL2 TRANSLATION FROM L1D PREFETCHER ACCESS:       3426  HIT:       3426  MISS:          0  HIT %:        100  MISS %:          0   MPKI: 0
PSCL2 PREFETCH  REQUESTED:          0  ISSUED:          0  USEFUL:          0  USELESS:          0
PSCL2 USEFUL LOAD PREFETCHES:          0 PREFETCH ISSUED TO LOWER LEVEL:          0  ACCURACY: -nan
PSCL2 TIMELY PREFETCHES:          0 LATE PREFETCHES: 0 DROPPED PREFETCHES: 0
PSCL2 PREFETCHES SAME FILL-ORIGIN LEVEL: 0 DIFFERENT FILL-ORIGIN LEVEL: 0

LLC TOTAL     ACCESS:    1168917  HIT:    1143109  MISS:      25808  HIT %:    97.7921  MISS %:    2.20786   MPKI: 0.51616
LLC LOAD      ACCESS:     173222  HIT:     169534  MISS:       3688  HIT %:    97.8709  MISS %:    2.12906   MPKI: 0.07376
LLC RFO       ACCESS:      81104  HIT:      70033  MISS:      11071  HIT %:    86.3496  MISS %:    13.6504   MPKI: 0.22142
LLC PREFETCH  ACCESS:     789526  HIT:     778896  MISS:      10630  HIT %:    98.6536  MISS %:    1.34638   MPKI: 0.2126
LLC WRITEBACK ACCESS:     122949  HIT:     122711  MISS:        238  HIT %:    99.8064  MISS %:   0.193576   MPKI: 0.00476
LLC LOAD TRANSLATION ACCESS:       1650  HIT:       1482  MISS:        168  HIT %:    89.8182  MISS %:    10.1818   MPKI: 0.00336
LLC TRANSLATION FROM L1D PREFETCHER ACCESS:        466  HIT:        453  MISS:         13  HIT %:    97.2103  MISS %:     2.7897   MPKI: 0.00026
LLC PREFETCH  REQUESTED:          0  ISSUED:          0  USEFUL:        872  USELESS:       9511
LLC USEFUL LOAD PREFETCHES:        872 PREFETCH ISSUED TO LOWER LEVEL:      10630  ACCURACY: 8.2032
LLC TIMELY PREFETCHES:        872 LATE PREFETCHES: 0 DROPPED PREFETCHES: 0
LLC PREFETCHES SAME FILL-ORIGIN LEVEL: 0 DIFFERENT FILL-ORIGIN LEVEL: 0
LLC AVERAGE MISS LATENCY: 161.063 cycles
LLC RQ	ACCESS:     256445	FORWARD:          0	MERGED:          0	TO_CACHE:     256442
LLC WQ	ACCESS:     122949	FORWARD:          3	MERGED:          0	TO_CACHE:     122949
LLC PQ	ACCESS:     789526	FORWARD:          0	MERGED:          0	TO_CACHE:     789526

LLC Dense regions hint to LLC: 0

RAW hits: 1167522
Loads Generated: 12740644
Loads sent to L1D: 11573123
Stores Generated: 6957596
Stores sent to L1D: 6957599
Major fault: 0 Minor fault: 2563
Allocated PAGES: 2563
I-Shadow cache 408 bytes
Touched + WorthPF tables 6144 bytes 
MMA filter 174 bytes 
FNL filter 272 bytes 
TOTAL PREFETCHER STORAGE SIZE: 25174 bytes
CPU 0 L1I next line prefetcher final stats

stream: 
stream:times selected: 1168582
stream:pref_filled: 105355
stream:pref_useful: 20775
stream:pref_late: 17044
stream:misses: 4665
stream:misses_by_poll: 0

CS: 
CS:times selected: 179538
CS:pref_filled: 70415
CS:pref_useful: 45141
CS:pref_late: 8260
CS:misses: 12956
CS:misses_by_poll: 40

CPLX: 
CPLX:times selected: 987773
CPLX:pref_filled: 21695
CPLX:pref_useful: 4591
CPLX:pref_late: 2228
CPLX:misses: 69988
CPLX:misses_by_poll: 2

NL_L1: 
NL:times selected: 10807
NL:pref_filled: 132
NL:pref_useful: 62
NL:pref_late: 27
NL:misses: 99
NL:misses_by_poll: 0

total selections: 2346700
total_filled: 95227
total_useful: 33065
total_late: 28928
total_polluted: 42
total_misses_after_warmup: 663271
conflicts: 3363197
Degree Incremented Times: 0
Degree Decremented Times: 189022

L1 IP Table Write Accesses: 4511124
L1 IP Table Read Accesses: 1147927
L1 RST Write Accesses: 563959
L1 RST Read Accesses: 1127918
L1 CSPT Write Accesses: 563959
L1 CSPT Read Accesses: 1042977
L1 RR Filter Tag Write Accesses: 325462
L1 RR Filter Tag Read Accesses: 26073295
L1 IP Table Tag Write Accesses: 8093929
L1 IP Table Tag Read Accesses: 8093929
L1 RST Tag Write Accesses: 0
L1 RST Tag Read Accesses: 4831577
L1 RR Filter Write Accesses: 0
L1 RR Filter Read Accesses: 973786
test: 128827
L2 IP Table Read Accesses: 4259645
L2 IP Table Write Accesses: 8069186
L2 IP Table Tag Read Accesses: 4091494
L2 IP Table Tag Write Accesses: 4091494

DRAM Statistics
 CHANNEL 0
 RQ ROW_BUFFER_HIT:       8491  ROW_BUFFER_MISS:      17070
 DBUS_CONGESTED:          4
 WQ ROW_BUFFER_HIT:       1316  ROW_BUFFER_MISS:      11251  FULL:          0

 AVG_CONGESTED_CYCLE: 3
 All warmup complete: 2
Channel 0 Bank busy for read cycles: 0
Channel 0 Bank busy for write cycles: 0
Channel 0
Rank 0
0banks busy for read cycles: 75878531
0banks busy for write cycles: 3147
1banks busy for read cycles: 589469
1banks busy for write cycles: 371302
2banks busy for read cycles: 375881
2banks busy for write cycles: 134190
3banks busy for read cycles: 105624
3banks busy for write cycles: 63329
4banks busy for read cycles: 72551
4banks busy for write cycles: 43390
5banks busy for read cycles: 38355
5banks busy for write cycles: 38711
6banks busy for read cycles: 33356
6banks busy for write cycles: 38400
7banks busy for read cycles: 28552
7banks busy for write cycles: 40887
8banks busy for read cycles: 58453
8banks busy for write cycles: 78737

CPU 0 Branch Prediction Accuracy: 99.8142% MPKI: 0.34676 Average ROB Occupancy at Mispredict: 70.5463
Branch types
NOT_BRANCH: 40668673 81.3373%
BRANCH_DIRECT_JUMP: 531697 1.06339%
BRANCH_INDIRECT: 199023 0.398046%
BRANCH_CONDITIONAL: 6211453 12.4229%
BRANCH_DIRECT_CALL: 1010905 2.02181%
BRANCH_INDIRECT_CALL: 183501 0.367002%
BRANCH_RETURN: 1194407 2.38881%
BRANCH_OTHER: 0 0%

DRAM PAGES: 1048576
Allocated PAGES: 2563
