
*** ChampSim Multicore Out-of-Order Simulator ***

Warmup Instructions: 50000000
Simulation Instructions: 50000000
Number of CPUs: 1
LLC sets: 2048
LLC ways: 16
Off-chip DRAM Size: 4096 MB Channels: 1 Width: 64-bit Data Rate: 6400 MT/s
CPU 0 runs ../IPC-traces//server_024.champsimtrace.xz
.xz
NUM_OF_IPS_IN_CRITICAL_IP_TRAINING: 64
NUM_OF_CRITICAL_IP_TRAINING_TABLE_WAYS: 2
NUM_OF_CRITICAL_IP_TRAINING_TABLE_SETS: 32
WOBBLY_CRITICAL_IP_CACHE_SETS: 32
WOBBLY_CRITICAL_IP_CACHE_WAYS: 4
BTB has LRU replacement policy
ITLB has LRU replacement policy
DTLB has LRU replacement policy
STLB has LRU replacement policy
CPU 0 L1I next line prefetcher
L1I has LRU replacement policy
IP Table Entries: 64
L1D has LRU replacement policy
Initialize SRRIP state for L2C
Initialize DRRIP state for LLC
Heartbeat CPU 0 instructions: 10000000 cycles: 2876714 heartbeat IPC: 3.47619 cumulative IPC: 3.47619 (Simulation time: 0 hr 3 min 19 sec) 
Heartbeat CPU 0 instructions: 20000002 cycles: 5747025 heartbeat IPC: 3.48394 cumulative IPC: 3.48006 (Simulation time: 0 hr 6 min 4 sec) 
Heartbeat CPU 0 instructions: 30000002 cycles: 8619571 heartbeat IPC: 3.48123 cumulative IPC: 3.48045 (Simulation time: 0 hr 8 min 39 sec) 
Heartbeat CPU 0 instructions: 40000000 cycles: 11492257 heartbeat IPC: 3.48106 cumulative IPC: 3.4806 (Simulation time: 0 hr 10 min 59 sec) 
Heartbeat CPU 0 instructions: 50000001 cycles: 14361954 heartbeat IPC: 3.48469 cumulative IPC: 3.48142 (Simulation time: 0 hr 13 min 8 sec) 

Warmup complete CPU 0 instructions: 50000001 cycles: 14361954 (Simulation time: 0 hr 13 min 8 sec) 

% increase in all ip prefetch 396.793
% increase in all ip prefetch 4.17581
% increase in all ip prefetch 6.27078
% increase in all ip prefetch -2.43274
Heartbeat CPU 0 instructions: 60000003 cycles: 30243818 heartbeat IPC: 0.629649 cumulative IPC: 0.629649 (Simulation time: 0 hr 15 min 48 sec) 
Heartbeat CPU 0 instructions: 70000000 cycles: 46197332 heartbeat IPC: 0.626821 cumulative IPC: 0.628232 (Simulation time: 0 hr 18 min 22 sec) 
*** Reached end of trace for Core: 0 Repeating trace: ../IPC-traces//server_024.champsimtrace.xz
Heartbeat CPU 0 instructions: 80000003 cycles: 62044404 heartbeat IPC: 0.631032 cumulative IPC: 0.629162 (Simulation time: 0 hr 20 min 57 sec) 
Heartbeat CPU 0 instructions: 90000003 cycles: 77973809 heartbeat IPC: 0.62777 cumulative IPC: 0.628814 (Simulation time: 0 hr 23 min 30 sec) 
Heartbeat CPU 0 instructions: 100000002 cycles: 93953227 heartbeat IPC: 0.625805 cumulative IPC: 0.62821 (Simulation time: 0 hr 26 min 28 sec) 
Finished CPU 0 instructions: 50000001 cycles: 79591273 cumulative IPC: 0.62821 (Simulation time: 0 hr 26 min 28 sec) 

ChampSim completed all CPUs

Region of Interest Statistics

CPU 0 cumulative IPC: 0.62821 instructions: 50000001 cycles: 79591273

CPU 0 Average Load ROB stall cycles: 1.98e+07
CPU 0 Fraction of times ROB stalled by Loads: 36.5833
CPU 0 Percentage of Load stall cycles in Total stall cycles: 2.75003e+08
Issued all: 27857230
Issued LT all: 22024404
rob_not_full_when_issued_lt_all: 21510618
Issued LT one: 17036004
rob_not_full_when_issued_lt_one: 16587486
critical_ip_candidate_identification_operations: 6743102
critical_ip_candidate_identification_operation_per_cycle: 0.0847216
 Total stall cycles: 66355050
 Total load stall cycles: 182478299055101
Unique Load IPs: 13758
CPU 0 NUM of IPS identified critical: 4
CPU 0 Num of Load IPs stalling ROB: 12154
Threshold modification factor: -3
Max PIST entries: 64
Min PIST entries: 0
Avg PIST entries: 32
Trouble in retire width: 0.895195
MaC = Marked as critical.
lt_50_percent_before_Mac: 3
gt_90_percent_before_Mac: 1
gt_75_percent_before_Mac: 0
gt_50_percent_before_Mac: 0
stall_proportion_bin_same_before_after: 0
stall_proportion_bin_lower_before_after: 0
stall_proportion_bin_upper_before_after: 0
average_stall_proportion_before: 0.0455335
average_stall_proportion_after: 0.0426594
Critical IP stalls, total frequency: 157483
Non-critical IP stalls, total frequency: 3214068
Total Freq all stalling IPs: 3371551
Critical_IP_Detector_Accuracy_70: 0.75
Critical_IP_Detector_Accuracy_80: 0.75
Critical_IP_Detector_Accuracy_90: 0.75
Critical_IP_Detector_Coverage_70: 0.00210526
Critical_IP_Detector_Coverage_80: 0.00130947
Critical_IP_Detector_Coverage_90: 0.00089579
stat_90_percent_critical_ip_stalls_freq: 3034601
stat_90_percent_non_critical_ip_stalls_freq: 336950
AVERAGE_ROB_Occupancy_90_Percent_Critical_IP_Stalls: 50.3555
AVERAGE_ROB_Occupancy_90_Percent_Non_Critical_IP_Stalls: 27.3533
Critical_IP_ROB_Stalls_Bucket_0: 3460
Non-critical_IP_ROB_Stalls_Bucket_0: 2279457
Critical_IP_ROB_Stalls_Bucket_1: 71012
Non-critical_IP_ROB_Stalls_Bucket_1: 650818
Critical_IP_ROB_Stalls_Bucket_2: 35098
Non-critical_IP_ROB_Stalls_Bucket_2: 215242
Critical_IP_ROB_Stalls_Bucket_3: 12826
Non-critical_IP_ROB_Stalls_Bucket_3: 48300
Critical_IP_ROB_Stalls_Bucket_4: 7319
Non-critical_IP_ROB_Stalls_Bucket_4: 13898
Critical_IP_ROB_Stalls_Bucket_5: 6868
Non-critical_IP_ROB_Stalls_Bucket_5: 3581
Critical_IP_ROB_Stalls_Bucket_6: 20900
Non-critical_IP_ROB_Stalls_Bucket_6: 2772
0 => IPs accounting for >50 percent of stalls, 1 => 55, 2 => 60, 3 => 65 and so on till 90.
percent50: 50.0255 num IPs:  432
percent55: 55.0152 num IPs: 613
percent60: 60.0036 num IPs: 858
percent65: 65.0041 num IPs: 1116
percent70: 70.0087 num IPs: 1425
percent75: 75.003 num IPs: 1809
percent80: 80.009 num IPs: 2291
percent85: 85.0025 num IPs: 2794
percent90: 90.007 num IPs: 3349
Critical_ROB_Stalls_Percent_0_Bucket_0: 895328
Non-critical_ROB_Stalls_Percent_0_Bucket_0: 1387589
Critical_ROB_Stalls_Percent_0_Bucket_1: 488514
Non-critical_ROB_Stalls_Percent_0_Bucket_1: 233316
Critical_ROB_Stalls_Percent_0_Bucket_2: 201155
Non-critical_ROB_Stalls_Percent_0_Bucket_2: 49185
Critical_ROB_Stalls_Percent_0_Bucket_3: 52817
Non-critical_ROB_Stalls_Percent_0_Bucket_3: 8309
Critical_ROB_Stalls_Percent_0_Bucket_4: 18068
Non-critical_ROB_Stalls_Percent_0_Bucket_4: 3149
Critical_ROB_Stalls_Percent_0_Bucket_5: 9105
Non-critical_ROB_Stalls_Percent_0_Bucket_5: 1344
Critical_ROB_Stalls_Percent_0_Bucket_6: 21650
Non-critical_ROB_Stalls_Percent_0_Bucket_6: 2022
Critical_ROB_Stalls_Percent_1_Bucket_0: 1016443
Non-critical_ROB_Stalls_Percent_1_Bucket_0: 1266474
Critical_ROB_Stalls_Percent_1_Bucket_1: 524787
Non-critical_ROB_Stalls_Percent_1_Bucket_1: 197043
Critical_ROB_Stalls_Percent_1_Bucket_2: 208878
Non-critical_ROB_Stalls_Percent_1_Bucket_2: 41462
Critical_ROB_Stalls_Percent_1_Bucket_3: 54377
Non-critical_ROB_Stalls_Percent_1_Bucket_3: 6749
Critical_ROB_Stalls_Percent_1_Bucket_4: 18668
Non-critical_ROB_Stalls_Percent_1_Bucket_4: 2549
Critical_ROB_Stalls_Percent_1_Bucket_5: 9193
Non-critical_ROB_Stalls_Percent_1_Bucket_5: 1256
Critical_ROB_Stalls_Percent_1_Bucket_6: 22521
Non-critical_ROB_Stalls_Percent_1_Bucket_6: 1151
Critical_ROB_Stalls_Percent_2_Bucket_0: 1142163
Non-critical_ROB_Stalls_Percent_2_Bucket_0: 1140754
Critical_ROB_Stalls_Percent_2_Bucket_1: 557918
Non-critical_ROB_Stalls_Percent_2_Bucket_1: 163912
Critical_ROB_Stalls_Percent_2_Bucket_2: 217321
Non-critical_ROB_Stalls_Percent_2_Bucket_2: 33019
Critical_ROB_Stalls_Percent_2_Bucket_3: 55101
Non-critical_ROB_Stalls_Percent_2_Bucket_3: 6025
Critical_ROB_Stalls_Percent_2_Bucket_4: 18801
Non-critical_ROB_Stalls_Percent_2_Bucket_4: 2416
Critical_ROB_Stalls_Percent_2_Bucket_5: 9213
Non-critical_ROB_Stalls_Percent_2_Bucket_5: 1236
Critical_ROB_Stalls_Percent_2_Bucket_6: 22533
Non-critical_ROB_Stalls_Percent_2_Bucket_6: 1139
Critical_ROB_Stalls_Percent_3_Bucket_0: 1275674
Non-critical_ROB_Stalls_Percent_3_Bucket_0: 1007243
Critical_ROB_Stalls_Percent_3_Bucket_1: 587301
Non-critical_ROB_Stalls_Percent_3_Bucket_1: 134529
Critical_ROB_Stalls_Percent_3_Bucket_2: 222424
Non-critical_ROB_Stalls_Percent_3_Bucket_2: 27916
Critical_ROB_Stalls_Percent_3_Bucket_3: 55599
Non-critical_ROB_Stalls_Percent_3_Bucket_3: 5527
Critical_ROB_Stalls_Percent_3_Bucket_4: 18858
Non-critical_ROB_Stalls_Percent_3_Bucket_4: 2359
Critical_ROB_Stalls_Percent_3_Bucket_5: 9249
Non-critical_ROB_Stalls_Percent_3_Bucket_5: 1200
Critical_ROB_Stalls_Percent_3_Bucket_6: 22540
Non-critical_ROB_Stalls_Percent_3_Bucket_6: 1132
Critical_ROB_Stalls_Percent_4_Bucket_0: 1409997
Non-critical_ROB_Stalls_Percent_4_Bucket_0: 872920
Critical_ROB_Stalls_Percent_4_Bucket_1: 613821
Non-critical_ROB_Stalls_Percent_4_Bucket_1: 108009
Critical_ROB_Stalls_Percent_4_Bucket_2: 229139
Non-critical_ROB_Stalls_Percent_4_Bucket_2: 21201
Critical_ROB_Stalls_Percent_4_Bucket_3: 56592
Non-critical_ROB_Stalls_Percent_4_Bucket_3: 4534
Critical_ROB_Stalls_Percent_4_Bucket_4: 18974
Non-critical_ROB_Stalls_Percent_4_Bucket_4: 2243
Critical_ROB_Stalls_Percent_4_Bucket_5: 9295
Non-critical_ROB_Stalls_Percent_4_Bucket_5: 1154
Critical_ROB_Stalls_Percent_4_Bucket_6: 22562
Non-critical_ROB_Stalls_Percent_4_Bucket_6: 1110
Critical_ROB_Stalls_Percent_5_Bucket_0: 1548772
Non-critical_ROB_Stalls_Percent_5_Bucket_0: 734145
Critical_ROB_Stalls_Percent_5_Bucket_1: 637220
Non-critical_ROB_Stalls_Percent_5_Bucket_1: 84610
Critical_ROB_Stalls_Percent_5_Bucket_2: 233835
Non-critical_ROB_Stalls_Percent_5_Bucket_2: 16505
Critical_ROB_Stalls_Percent_5_Bucket_3: 57708
Non-critical_ROB_Stalls_Percent_5_Bucket_3: 3418
Critical_ROB_Stalls_Percent_5_Bucket_4: 19193
Non-critical_ROB_Stalls_Percent_5_Bucket_4: 2024
Critical_ROB_Stalls_Percent_5_Bucket_5: 9336
Non-critical_ROB_Stalls_Percent_5_Bucket_5: 1113
Critical_ROB_Stalls_Percent_5_Bucket_6: 22703
Non-critical_ROB_Stalls_Percent_5_Bucket_6: 969
Critical_ROB_Stalls_Percent_6_Bucket_0: 1693277
Non-critical_ROB_Stalls_Percent_6_Bucket_0: 589640
Critical_ROB_Stalls_Percent_6_Bucket_1: 657724
Non-critical_ROB_Stalls_Percent_6_Bucket_1: 64106
Critical_ROB_Stalls_Percent_6_Bucket_2: 236563
Non-critical_ROB_Stalls_Percent_6_Bucket_2: 13777
Critical_ROB_Stalls_Percent_6_Bucket_3: 58351
Non-critical_ROB_Stalls_Percent_6_Bucket_3: 2775
Critical_ROB_Stalls_Percent_6_Bucket_4: 19473
Non-critical_ROB_Stalls_Percent_6_Bucket_4: 1744
Critical_ROB_Stalls_Percent_6_Bucket_5: 9380
Non-critical_ROB_Stalls_Percent_6_Bucket_5: 1069
Critical_ROB_Stalls_Percent_6_Bucket_6: 22759
Non-critical_ROB_Stalls_Percent_6_Bucket_6: 913
Critical_ROB_Stalls_Percent_7_Bucket_0: 1845824
Non-critical_ROB_Stalls_Percent_7_Bucket_0: 437093
Critical_ROB_Stalls_Percent_7_Bucket_1: 670611
Non-critical_ROB_Stalls_Percent_7_Bucket_1: 51219
Critical_ROB_Stalls_Percent_7_Bucket_2: 238033
Non-critical_ROB_Stalls_Percent_7_Bucket_2: 12307
Critical_ROB_Stalls_Percent_7_Bucket_3: 58910
Non-critical_ROB_Stalls_Percent_7_Bucket_3: 2216
Critical_ROB_Stalls_Percent_7_Bucket_4: 20193
Non-critical_ROB_Stalls_Percent_7_Bucket_4: 1024
Critical_ROB_Stalls_Percent_7_Bucket_5: 9506
Non-critical_ROB_Stalls_Percent_7_Bucket_5: 943
Critical_ROB_Stalls_Percent_7_Bucket_6: 22803
Non-critical_ROB_Stalls_Percent_7_Bucket_6: 869
Critical_ROB_Stalls_Percent_8_Bucket_0: 1989410
Non-critical_ROB_Stalls_Percent_8_Bucket_0: 293507
Critical_ROB_Stalls_Percent_8_Bucket_1: 688595
Non-critical_ROB_Stalls_Percent_8_Bucket_1: 33235
Critical_ROB_Stalls_Percent_8_Bucket_2: 243711
Non-critical_ROB_Stalls_Percent_8_Bucket_2: 6629
Critical_ROB_Stalls_Percent_8_Bucket_3: 59199
Non-critical_ROB_Stalls_Percent_8_Bucket_3: 1927
Critical_ROB_Stalls_Percent_8_Bucket_4: 20419
Non-critical_ROB_Stalls_Percent_8_Bucket_4: 798
Critical_ROB_Stalls_Percent_8_Bucket_5: 9910
Non-critical_ROB_Stalls_Percent_8_Bucket_5: 539
Critical_ROB_Stalls_Percent_8_Bucket_6: 23357
Non-critical_ROB_Stalls_Percent_8_Bucket_6: 315
Average ROB occupancy Load Stall Begin: 39.686
Average ROB occupancy Load Stall End: 48.0566
Min ROB occupancy Load Stall Begin: 1
Max ROB occupancy Load Stall Begin: 352
Min ROB occupancy Load Stall End: 1
Max ROB occupancy Load Stall End: 352
Average ROB occupancy Critical Load Stall Begin: 139.509
Average ROB occupancy Critical Load Stall End: 150.466
Min ROB occupancy Critical Load Stall Begin: 5
Max ROB occupancy Critical Load Stall Begin: 352
Min ROB occupancy Critical Load Stall End: 5
Max ROB occupancy Critical Load Stall End: 352
 ROB Load Stall Begin Bucket Count 0: 2521614
 ROB Load Stall End Bucket Count 0: 2282917
 ROB Critical Load Stall Begin Bucket Count 0: 4449
 ROB Critical Load Stall End Bucket Count 0: 3438
 ROB Load Stall Begin Bucket Count 1: 571342
 ROB Load Stall End Bucket Count 1: 721830
 ROB Critical Load Stall Begin Bucket Count 1: 79993
 ROB Critical Load Stall End Bucket Count 1: 70864
 ROB Load Stall Begin Bucket Count 2: 185814
 ROB Load Stall End Bucket Count 2: 250340
 ROB Critical Load Stall Begin Bucket Count 2: 29047
 ROB Critical Load Stall End Bucket Count 2: 35032
 ROB Load Stall Begin Bucket Count 3: 43933
 ROB Load Stall End Bucket Count 3: 61126
 ROB Critical Load Stall Begin Bucket Count 3: 9421
 ROB Critical Load Stall End Bucket Count 3: 12807
 ROB Load Stall Begin Bucket Count 4: 16930
 ROB Load Stall End Bucket Count 4: 21217
 ROB Critical Load Stall Begin Bucket Count 4: 7114
 ROB Critical Load Stall End Bucket Count 4: 7309
 ROB Load Stall Begin Bucket Count 5: 9404
 ROB Load Stall End Bucket Count 5: 10449
 ROB Critical Load Stall Begin Bucket Count 5: 6847
 ROB Critical Load Stall End Bucket Count 5: 6860
 ROB Load Stall Begin Bucket Count 6: 22514
 ROB Load Stall End Bucket Count 6: 23672
 ROB Critical Load Stall Begin Bucket Count 6: 20225
 ROB Critical Load Stall End Bucket Count 6: 20786
PIST Tag Read Accesses: 4134544
PIST Read Accesses: 2067272
PIST Tag Write Accesses: 4134544
PIST Write Accesses: 2067272
Criticality detector called times: 3214455
Max global_stall_cycles_count: 2592188
Threshold Modified: 3 times, factor: -3
Sturdy critical IP cache stats: 
 Unused entries: 0
CIC Tag Read Accesses: 0
CIC Read Accesses: 0
CIC Tag Write Accesses: 0
CIC Write Accesses: 0
Wobbly critical IP cache stats: 
 Unused entries: 124
CIC Tag Read Accesses: 81251688
CIC Read Accesses: 0
CIC Tag Write Accesses: 4
CIC Write Accesses: 0
ITLB TOTAL     ACCESS:    9904528  HIT:    9283314  MISS:     621214  HIT %:     93.728  MISS %:    6.27202   MPKI: 12.4243
ITLB LOAD TRANSLATION ACCESS:    8072413  HIT:    7984275  MISS:      88138  HIT %:    98.9082  MISS %:    1.09184   MPKI: 1.76276
ITLB TRANSLATION FROM L1D PREFETCHER ACCESS:    1832115  HIT:    1299039  MISS:     533076  HIT %:    70.9038  MISS %:    29.0962   MPKI: 10.6615
ITLBprefetch_cycle_count: 0 prefetches_per_prefetch_cycle: -nan
ITLB PREFETCH  REQUESTED:          0  ISSUED:          0  USEFUL:     414694  USELESS:     118388
ITLB USEFUL LOAD PREFETCHES:     414694 PREFETCH ISSUED TO LOWER LEVEL:          0  ACCURACY: inf
ITLB TIMELY PREFETCHES:     414694 LATE PREFETCHES: 267 DROPPED PREFETCHES: 3060
ITLB PREFETCHES SAME FILL-ORIGIN LEVEL: 0 DIFFERENT FILL-ORIGIN LEVEL: 0
ITLB AVERAGE MISS LATENCY: 23224.4 cycles
ITLB RQ	ACCESS:   14574280	FORWARD:          0	MERGED:    4628890	TO_CACHE:    9945390

DTLB TOTAL     ACCESS:   11311003  HIT:   10846842  MISS:     464161  HIT %:    95.8964  MISS %:    4.10362   MPKI: 9.28322
DTLB LOAD TRANSLATION ACCESS:   11311003  HIT:   10846842  MISS:     464161  HIT %:    95.8964  MISS %:    4.10362   MPKI: 9.28322
DTLBprefetch_cycle_count: 0 prefetches_per_prefetch_cycle: -nan
DTLB PREFETCH  REQUESTED:          0  ISSUED:          0  USEFUL:          0  USELESS:          0
DTLB USEFUL LOAD PREFETCHES:          0 PREFETCH ISSUED TO LOWER LEVEL:          0  ACCURACY: -nan
DTLB TIMELY PREFETCHES:          0 LATE PREFETCHES: 0 DROPPED PREFETCHES: 0
DTLB PREFETCHES SAME FILL-ORIGIN LEVEL: 0 DIFFERENT FILL-ORIGIN LEVEL: 0
DTLB AVERAGE MISS LATENCY: 9.40329 cycles
DTLB RQ	ACCESS:   14765978	FORWARD:          0	MERGED:    3428011	TO_CACHE:   11337967

STLB TOTAL     ACCESS:    1128549  HIT:    1125544  MISS:       3005  HIT %:    99.7337  MISS %:   0.266271   MPKI: 0.0601
STLB LOAD TRANSLATION ACCESS:     552032  HIT:     549269  MISS:       2763  HIT %:    99.4995  MISS %:   0.500514   MPKI: 0.05526
STLB TRANSLATION FROM L1D PREFETCHER ACCESS:     576517  HIT:     576275  MISS:        242  HIT %:     99.958  MISS %:  0.0419762   MPKI: 0.00484
STLBprefetch_cycle_count: 0 prefetches_per_prefetch_cycle: -nan
STLB PREFETCH  REQUESTED:          0  ISSUED:          0  USEFUL:        182  USELESS:         59
STLB USEFUL LOAD PREFETCHES:        182 PREFETCH ISSUED TO LOWER LEVEL:          0  ACCURACY: inf
STLB TIMELY PREFETCHES:        182 LATE PREFETCHES: 0 DROPPED PREFETCHES: 3060
STLB PREFETCHES SAME FILL-ORIGIN LEVEL: 0 DIFFERENT FILL-ORIGIN LEVEL: 0
STLB AVERAGE MISS LATENCY: 67.3704 cycles
STLB RQ	ACCESS:    1162672	FORWARD:          0	MERGED:      31063	TO_CACHE:    1131609

STLB Hit, L1D data hit: 0
STLB Hit, L2C data hit: 0
STLB Hit, LLC data hit: 0
STLB Hit, LLC data miss: 0
STLB STLB hints to L2: 0
L1D TOTAL     ACCESS:   14321967  HIT:   13316170  MISS:    1005797  HIT %:    92.9772  MISS %:    7.02276   MPKI: 20.1159
L1D LOAD      ACCESS:    8022043  HIT:    7317814  MISS:     704229  HIT %:    91.2213  MISS %:    8.77867   MPKI: 14.0846
L1D RFO       ACCESS:    6234171  HIT:    5953230  MISS:     280941  HIT %:    95.4935  MISS %:    4.50647   MPKI: 5.61882
L1D PREFETCH  ACCESS:      65753  HIT:      45126  MISS:      20627  HIT %:    68.6296  MISS %:    31.3704   MPKI: 0.41254
L1Dprefetch_cycle_count: 49955 prefetches_per_prefetch_cycle: 2.97246
L1D PREFETCH  REQUESTED:     148504  ISSUED:     148489  USEFUL:       9152  USELESS:      11475
L1D USEFUL LOAD PREFETCHES:       9152 PREFETCH ISSUED TO LOWER LEVEL:      26697  ACCURACY: 34.281
L1D TIMELY PREFETCHES:       9152 LATE PREFETCHES: 6044 DROPPED PREFETCHES: 0
L1D PREFETCHES SAME FILL-ORIGIN LEVEL: 26697 DIFFERENT FILL-ORIGIN LEVEL: 0
L1D AVERAGE MISS LATENCY: 199451 cycles
L1D RQ	ACCESS:   11533007	FORWARD:          0	MERGED:    3342887	TO_CACHE:    8062356
L1D WQ	ACCESS:    6771059	FORWARD:     127779	MERGED:      67437	TO_CACHE:    6703622
L1D PQ	ACCESS:      74252	FORWARD:          0	MERGED:          0	TO_CACHE:      74237

L1D UNIQUE REGIONS ACCESSED: 0
L1D REGIONS CONFLICTS: 0
L1D Cross Page Prefetch Requests: 0
L1D Same Page Prefetch Requests: 80287
L1D ROI Sum of L1D PQ occupancy: 1200064
L1D PREFETCHES PUSHED FROM L2C: 0
L1I TOTAL     ACCESS:   14429597  HIT:   10647261  MISS:    3782336  HIT %:    73.7877  MISS %:    26.2123   MPKI: 75.6467
L1I LOAD      ACCESS:    9397053  HIT:    9126673  MISS:     270380  HIT %:    97.1227  MISS %:    2.87729   MPKI: 5.4076
L1I PREFETCH  ACCESS:    5032544  HIT:    1520588  MISS:    3511956  HIT %:    30.2151  MISS %:    69.7849   MPKI: 70.2391
L1Iprefetch_cycle_count: 0 prefetches_per_prefetch_cycle: inf
L1I PREFETCH  REQUESTED:    5275071  ISSUED:    5259936  USEFUL:    2355144  USELESS:    1156827
L1I USEFUL LOAD PREFETCHES:    2355144 PREFETCH ISSUED TO LOWER LEVEL:    3540900  ACCURACY: 66.5126
L1I TIMELY PREFETCHES:    2355144 LATE PREFETCHES: 28944 DROPPED PREFETCHES: 7905
L1I PREFETCHES SAME FILL-ORIGIN LEVEL: 3540900 DIFFERENT FILL-ORIGIN LEVEL: 0
L1I AVERAGE MISS LATENCY: 412913 cycles
L1I RQ	ACCESS:   13466979	FORWARD:          0	MERGED:    4044786	TO_CACHE:    9422193
L1I PQ	ACCESS:    5259936	FORWARD:          0	MERGED:     107849	TO_CACHE:    5152087

BTB TOTAL     ACCESS:    6210935  HIT:    4468586  MISS:    1742349  HIT %:    71.9471  MISS %:    28.0529   MPKI: 34.847
BTB BRANCH_DIRECT_JUMP	ACCESS:     566815  HIT:     417590  MISS:     149225
BTB BRANCH_INDIRECT	ACCESS:     197171  HIT:     163808  MISS:      33363
BTB BRANCH_CONDITIONAL	ACCESS:    3373174  HIT:    2911628  MISS:     461546
BTB BRANCH_DIRECT_CALL	ACCESS:     876399  HIT:     531835  MISS:     344564
BTB BRANCH_INDIRECT_CALL	ACCESS:     160491  HIT:      90228  MISS:      70263
BTB BRANCH_RETURN	ACCESS:    1036885  HIT:     353497  MISS:     683388
BTB BRANCH_OTHER ACCESS:          0  HIT:          0  MISS:          0

L2C TOTAL     ACCESS:    6457138  HIT:    5561623  MISS:     895515  HIT %:    86.1314  MISS %:    13.8686   MPKI: 17.9103
L2C LOAD      ACCESS:     939592  HIT:     714522  MISS:     225070  HIT %:     76.046  MISS %:     23.954   MPKI: 4.5014
L2C DATA LOAD MPKI: 3.6484
L2C INSTRUCTION LOAD MPKI: 0.853
L2C RFO       ACCESS:     280909  HIT:     182941  MISS:      97968  HIT %:    65.1246  MISS %:    34.8754   MPKI: 1.95936
L2C PREFETCH  ACCESS:    4758445  HIT:    4234039  MISS:     524406  HIT %:    88.9795  MISS %:    11.0205   MPKI: 10.4881
L2C DATA PREFETCH MPKI: 2.91928
L2C INSTRUCTION PREFETCH MPKI: 7.56884
L2C WRITEBACK ACCESS:     469583  HIT:     423840  MISS:      45743  HIT %:    90.2588  MISS %:     9.7412   MPKI: 0.91486
L2C LOAD TRANSLATION ACCESS:       3039  HIT:        918  MISS:       2121  HIT %:    30.2073  MISS %:    69.7927   MPKI: 0.04242
L2C TRANSLATION FROM L1D PREFETCHER ACCESS:       5570  HIT:       5363  MISS:        207  HIT %:    96.2837  MISS %:    3.71634   MPKI: 0.00414
L2Cprefetch_cycle_count: 3203105 prefetches_per_prefetch_cycle: 1.00012
L2C PREFETCH  REQUESTED:    3203489  ISSUED:    3203489  USEFUL:      14905  USELESS:     509840
L2C USEFUL LOAD PREFETCHES:      14905 PREFETCH ISSUED TO LOWER LEVEL:     524806  ACCURACY: 2.8401
L2C TIMELY PREFETCHES:      14905 LATE PREFETCHES: 400 DROPPED PREFETCHES: 0
L2C PREFETCHES SAME FILL-ORIGIN LEVEL: 132261 DIFFERENT FILL-ORIGIN LEVEL: 0
L2C AVERAGE MISS LATENCY: 37.1531 cycles
L2C RQ	ACCESS:    1229145	FORWARD:          0	MERGED:          0	TO_CACHE:    1229110
L2C WQ	ACCESS:     469583	FORWARD:         37	MERGED:          0	TO_CACHE:     469583
L2C PQ	ACCESS:    6771086	FORWARD:          0	MERGED:    2003161	TO_CACHE:    4767923

L2C Instructions Evicting Data 216542
L2C Translations Evicting Data 1453
L2C Data Evicting Data 231207
L2C Instructions Evicting Instructions 203673
L2C Translations Evicting Instructions 856
L2C Data Evicting Instructions 193755
L2C Instructions Evicting Translations 877
L2C Translations Evicting Translations 19
L2C Data Evicting Translations 1390
L2C Dense regions hint from L2: 0
PSCL5 TOTAL     ACCESS:       6065  HIT:       6065  MISS:          0  HIT %:        100  MISS %:          0   MPKI: 0
PSCL5 LOAD TRANSLATION ACCESS:       2763  HIT:       2763  MISS:          0  HIT %:        100  MISS %:          0   MPKI: 0
PSCL5 TRANSLATION FROM L1D PREFETCHER ACCESS:       3302  HIT:       3302  MISS:          0  HIT %:        100  MISS %:          0   MPKI: 0
PSCL5prefetch_cycle_count: 0 prefetches_per_prefetch_cycle: -nan
PSCL5 PREFETCH  REQUESTED:          0  ISSUED:          0  USEFUL:          0  USELESS:          0
PSCL5 USEFUL LOAD PREFETCHES:          0 PREFETCH ISSUED TO LOWER LEVEL:          0  ACCURACY: -nan
PSCL5 TIMELY PREFETCHES:          0 LATE PREFETCHES: 0 DROPPED PREFETCHES: 0
PSCL5 PREFETCHES SAME FILL-ORIGIN LEVEL: 0 DIFFERENT FILL-ORIGIN LEVEL: 0

PSCL4 TOTAL     ACCESS:       5970  HIT:       5964  MISS:          6  HIT %:    99.8995  MISS %:   0.100503   MPKI: 0.00012
PSCL4 LOAD TRANSLATION ACCESS:       2671  HIT:       2665  MISS:          6  HIT %:    99.7754  MISS %:   0.224635   MPKI: 0.00012
PSCL4 TRANSLATION FROM L1D PREFETCHER ACCESS:       3299  HIT:       3299  MISS:          0  HIT %:        100  MISS %:          0   MPKI: 0
PSCL4prefetch_cycle_count: 0 prefetches_per_prefetch_cycle: -nan
PSCL4 PREFETCH  REQUESTED:          0  ISSUED:          0  USEFUL:          0  USELESS:          0
PSCL4 USEFUL LOAD PREFETCHES:          0 PREFETCH ISSUED TO LOWER LEVEL:          0  ACCURACY: -nan
PSCL4 TIMELY PREFETCHES:          0 LATE PREFETCHES: 0 DROPPED PREFETCHES: 0
PSCL4 PREFETCHES SAME FILL-ORIGIN LEVEL: 0 DIFFERENT FILL-ORIGIN LEVEL: 0

PSCL3 TOTAL     ACCESS:       6061  HIT:       6055  MISS:          6  HIT %:     99.901  MISS %:  0.0989936   MPKI: 0.00012
PSCL3 LOAD TRANSLATION ACCESS:       2762  HIT:       2756  MISS:          6  HIT %:    99.7828  MISS %:   0.217234   MPKI: 0.00012
PSCL3 TRANSLATION FROM L1D PREFETCHER ACCESS:       3299  HIT:       3299  MISS:          0  HIT %:        100  MISS %:          0   MPKI: 0
PSCL3prefetch_cycle_count: 0 prefetches_per_prefetch_cycle: -nan
PSCL3 PREFETCH  REQUESTED:          0  ISSUED:          0  USEFUL:          0  USELESS:          0
PSCL3 USEFUL LOAD PREFETCHES:          0 PREFETCH ISSUED TO LOWER LEVEL:          0  ACCURACY: -nan
PSCL3 TIMELY PREFETCHES:          0 LATE PREFETCHES: 0 DROPPED PREFETCHES: 0
PSCL3 PREFETCHES SAME FILL-ORIGIN LEVEL: 0 DIFFERENT FILL-ORIGIN LEVEL: 0

PSCL2 TOTAL     ACCESS:       3834  HIT:       3536  MISS:        298  HIT %:    92.2274  MISS %:    7.77256   MPKI: 0.00596
PSCL2 LOAD TRANSLATION ACCESS:       2794  HIT:       2496  MISS:        298  HIT %:    89.3343  MISS %:    10.6657   MPKI: 0.00596
PSCL2 TRANSLATION FROM L1D PREFETCHER ACCESS:       1040  HIT:       1040  MISS:          0  HIT %:        100  MISS %:          0   MPKI: 0
PSCL2prefetch_cycle_count: 0 prefetches_per_prefetch_cycle: -nan
PSCL2 PREFETCH  REQUESTED:          0  ISSUED:          0  USEFUL:          0  USELESS:          0
PSCL2 USEFUL LOAD PREFETCHES:          0 PREFETCH ISSUED TO LOWER LEVEL:          0  ACCURACY: -nan
PSCL2 TIMELY PREFETCHES:          0 LATE PREFETCHES: 0 DROPPED PREFETCHES: 0
PSCL2 PREFETCHES SAME FILL-ORIGIN LEVEL: 0 DIFFERENT FILL-ORIGIN LEVEL: 0

LLC TOTAL     ACCESS:     991357  HIT:     947718  MISS:      43639  HIT %:    95.5981  MISS %:    4.40195   MPKI: 0.87278
LLC LOAD      ACCESS:     224678  HIT:     211710  MISS:      12968  HIT %:    94.2282  MISS %:    5.77182   MPKI: 0.25936
LLC RFO       ACCESS:      97946  HIT:      75514  MISS:      22432  HIT %:    77.0976  MISS %:    22.9024   MPKI: 0.44864
LLC PREFETCH  ACCESS:     524806  HIT:     517126  MISS:       7680  HIT %:    98.5366  MISS %:     1.4634   MPKI: 0.1536
LLC WRITEBACK ACCESS:     141599  HIT:     141248  MISS:        351  HIT %:    99.7521  MISS %:   0.247883   MPKI: 0.00702
LLC LOAD TRANSLATION ACCESS:       2121  HIT:       1929  MISS:        192  HIT %:    90.9477  MISS %:    9.05233   MPKI: 0.00384
LLC TRANSLATION FROM L1D PREFETCHER ACCESS:        207  HIT:        191  MISS:         16  HIT %:    92.2705  MISS %:    7.72947   MPKI: 0.00032
LLCprefetch_cycle_count: 0 prefetches_per_prefetch_cycle: -nan
LLC PREFETCH  REQUESTED:          0  ISSUED:          0  USEFUL:        481  USELESS:       5791
LLC USEFUL LOAD PREFETCHES:        481 PREFETCH ISSUED TO LOWER LEVEL:       7680  ACCURACY: 6.26302
LLC TIMELY PREFETCHES:        481 LATE PREFETCHES: 0 DROPPED PREFETCHES: 0
LLC PREFETCHES SAME FILL-ORIGIN LEVEL: 0 DIFFERENT FILL-ORIGIN LEVEL: 0
LLC AVERAGE MISS LATENCY: 177.663 cycles
LLC RQ	ACCESS:     324966	FORWARD:          0	MERGED:          0	TO_CACHE:     324952
LLC WQ	ACCESS:     141599	FORWARD:         14	MERGED:          0	TO_CACHE:     141599
LLC PQ	ACCESS:     524806	FORWARD:          0	MERGED:          0	TO_CACHE:     524806

LLC Dense regions hint to LLC: 0

RAW hits: 937064
Loads Generated: 12470071
Loads sent to L1D: 11533007
Stores Generated: 6771037
Stores sent to L1D: 6771059
Major fault: 0 Minor fault: 2466
Allocated PAGES: 2466
I-Shadow cache 408 bytes
Touched + WorthPF tables 6144 bytes 
MMA filter 174 bytes 
FNL filter 272 bytes 
TOTAL PREFETCHER STORAGE SIZE: 25174 bytes
CPU 0 L1I next line prefetcher final stats

total_pref_operate_instances_l1: 827491
dynamic_config_counter_instances_1: 155702
dynamic_config_counter_instances_2: 9732
dynamic_config_counter_instances_3: 15120
dynamic_config_counter_instances_4: 7201
dynamic_config_counter_instances_5: 639736
stream: 
stream:times selected: 132893
stream:pref_filled: 9046
stream:pref_useful: 2142
stream:pref_late: 2659
stream:misses: 434
stream:misses_by_poll: 0

CS: 
CS:times selected: 26235
CS:pref_filled: 10804
CS:pref_useful: 7118
CS:pref_late: 3243
CS:misses: 5665
CS:misses_by_poll: 124

CPLX: 
CPLX:times selected: 106160
CPLX:pref_filled: 1812
CPLX:pref_useful: 336
CPLX:pref_late: 517
CPLX:misses: 5281
CPLX:misses_by_poll: 5

NL_L1: 
NL:times selected: 7314
NL:pref_filled: 491
NL:pref_useful: 68
NL:pref_late: 102
NL:misses: 587
NL:misses_by_poll: 0

total selections: 272602
total_filled: 20627
total_useful: 9152
total_late: 6807
total_polluted: 129
total_misses_after_warmup: 59421
conflicts: 246878
Degree Incremented Times: 26
Degree Decremented Times: 8785

L1 IP Table Write Accesses: 562132
L1 IP Table Read Accesses: 315254
L1 RST Write Accesses: 127920
L1 RST Read Accesses: 255840
L1 CSPT Write Accesses: 127920
L1 CSPT Read Accesses: 229547
L1 RR Filter Tag Write Accesses: 74267
L1 RR Filter Tag Read Accesses: 9492334
L1 IP Table Tag Write Accesses: 827491
L1 IP Table Tag Read Accesses: 827491
L1 RST Tag Write Accesses: 0
L1 RST Tag Read Accesses: 992555
L1 RR Filter Write Accesses: 0
L1 RR Filter Read Accesses: 360591
test: 15218
total_pref_operate_instances_l2: 3286623
dynamic_config_counter_instances_l2_1: 3256866
dynamic_config_counter_instances_l2_2: 12800
dynamic_config_counter_instances_l2_3: 16957
dynamic_config_counter_instances_l2_4: 0
dynamic_config_counter_instances_l2_5: 0
L2 IP Table Read Accesses: 3320287
L2 IP Table Write Accesses: 6559075
L2 IP Table Tag Read Accesses: 3286623
L2 IP Table Tag Write Accesses: 3286623

DRAM Statistics
 CHANNEL 0
 RQ ROW_BUFFER_HIT:      15405  ROW_BUFFER_MISS:      27876
 DBUS_CONGESTED:          5
 WQ ROW_BUFFER_HIT:       2561  ROW_BUFFER_MISS:      22294  FULL:          0

 AVG_CONGESTED_CYCLE: 5
 All warmup complete: 2
Channel 0 Bank busy for read cycles: 0
Channel 0 Bank busy for write cycles: 0
Channel 0
Rank 0
0banks busy for read cycles: 75178696
0banks busy for write cycles: 5235
1banks busy for read cycles: 1955894
1banks busy for write cycles: 695019
2banks busy for read cycles: 279046
2banks busy for write cycles: 234846
3banks busy for read cycles: 98070
3banks busy for write cycles: 152679
4banks busy for read cycles: 52639
4banks busy for write cycles: 118805
5banks busy for read cycles: 41842
5banks busy for write cycles: 110939
6banks busy for read cycles: 45265
6banks busy for write cycles: 107777
7banks busy for read cycles: 55125
7banks busy for write cycles: 109760
8banks busy for read cycles: 138469
8banks busy for write cycles: 211168

CPU 0 Branch Prediction Accuracy: 99.7477% MPKI: 0.46156 Average ROB Occupancy at Mispredict: 74.5275
Branch types
NOT_BRANCH: 40853605 81.7072%
BRANCH_DIRECT_JUMP: 566815 1.13363%
BRANCH_INDIRECT: 197171 0.394342%
BRANCH_CONDITIONAL: 6308406 12.6168%
BRANCH_DIRECT_CALL: 876399 1.7528%
BRANCH_INDIRECT_CALL: 160491 0.320982%
BRANCH_RETURN: 1036885 2.07377%
BRANCH_OTHER: 0 0%

DRAM PAGES: 1048576
Allocated PAGES: 2466
