
*** ChampSim Multicore Out-of-Order Simulator ***

Warmup Instructions: 50000000
Simulation Instructions: 50000000
Number of CPUs: 1
LLC sets: 2048
LLC ways: 16
Off-chip DRAM Size: 4096 MB Channels: 1 Width: 64-bit Data Rate: 6400 MT/s
CPU 0 runs ../IPC-traces//server_028.champsimtrace.xz
.xz
NUM_OF_IPS_IN_CRITICAL_IP_TRAINING: 64
NUM_OF_CRITICAL_IP_TRAINING_TABLE_WAYS: 2
NUM_OF_CRITICAL_IP_TRAINING_TABLE_SETS: 32
WOBBLY_CRITICAL_IP_CACHE_SETS: 32
WOBBLY_CRITICAL_IP_CACHE_WAYS: 4
BTB has LRU replacement policy
ITLB has LRU replacement policy
DTLB has LRU replacement policy
STLB has LRU replacement policy
CPU 0 L1I next line prefetcher
L1I has LRU replacement policy
IP Table Entries: 256
L1D has LRU replacement policy
Initialize SRRIP state for L2C
Initialize DRRIP state for LLC
Heartbeat CPU 0 instructions: 10000001 cycles: 2882012 heartbeat IPC: 3.4698 cumulative IPC: 3.4698 (Simulation time: 0 hr 6 min 22 sec) 
Heartbeat CPU 0 instructions: 20000001 cycles: 5759387 heartbeat IPC: 3.47539 cumulative IPC: 3.47259 (Simulation time: 0 hr 13 min 12 sec) 
Heartbeat CPU 0 instructions: 30000001 cycles: 8636012 heartbeat IPC: 3.4763 cumulative IPC: 3.47383 (Simulation time: 0 hr 20 min 21 sec) 
Heartbeat CPU 0 instructions: 40000000 cycles: 11515309 heartbeat IPC: 3.47307 cumulative IPC: 3.47364 (Simulation time: 0 hr 26 min 48 sec) 
Heartbeat CPU 0 instructions: 50000001 cycles: 14392426 heartbeat IPC: 3.4757 cumulative IPC: 3.47405 (Simulation time: 0 hr 33 min 2 sec) 

Warmup complete CPU 0 instructions: 50000001 cycles: 14392426 (Simulation time: 0 hr 33 min 2 sec) 

% increase in all ip prefetch 419.408
% increase in all ip prefetch 0.224917
Heartbeat CPU 0 instructions: 60000000 cycles: 30670584 heartbeat IPC: 0.61432 cumulative IPC: 0.61432 (Simulation time: 0 hr 38 min 50 sec) 
Heartbeat CPU 0 instructions: 70000000 cycles: 46869972 heartbeat IPC: 0.617307 cumulative IPC: 0.61581 (Simulation time: 0 hr 44 min 12 sec) 
Heartbeat CPU 0 instructions: 80000000 cycles: 63070625 heartbeat IPC: 0.617259 cumulative IPC: 0.616292 (Simulation time: 0 hr 48 min 58 sec) 
*** Reached end of trace for Core: 0 Repeating trace: ../IPC-traces//server_028.champsimtrace.xz
Heartbeat CPU 0 instructions: 90000001 cycles: 79202853 heartbeat IPC: 0.619877 cumulative IPC: 0.617185 (Simulation time: 0 hr 52 min 24 sec) 
Heartbeat CPU 0 instructions: 100000003 cycles: 95287704 heartbeat IPC: 0.621703 cumulative IPC: 0.618083 (Simulation time: 0 hr 56 min 1 sec) 
Finished CPU 0 instructions: 50000002 cycles: 80895278 cumulative IPC: 0.618083 (Simulation time: 0 hr 56 min 1 sec) 

ChampSim completed all CPUs

Region of Interest Statistics

CPU 0 cumulative IPC: 0.618083 instructions: 50000002 cycles: 80895278

CPU 0 Average Load ROB stall cycles: 1.96546e+07
CPU 0 Fraction of times ROB stalled by Loads: 35.7873
CPU 0 Percentage of Load stall cycles in Total stall cycles: 2.70509e+08
Issued all: 28060404
Issued LT all: 22140902
rob_not_full_when_issued_lt_all: 22065904
Issued LT one: 17259390
rob_not_full_when_issued_lt_one: 17191870
 Total stall cycles: 68520046
 Total load stall cycles: 185352781413272
CPU 0 NUM of IPS identified critical: 0
CPU 0 Num of Load IPs stalling ROB: 10058
Threshold modification factor: -1
Max PIST entries: 64
Min PIST entries: 0
Avg PIST entries: 32
Trouble in retire width: 0.890021
MaC = Marked as critical.
lt_50_percent_before_Mac: 0
gt_90_percent_before_Mac: 0
gt_75_percent_before_Mac: 0
gt_50_percent_before_Mac: 0
stall_proportion_bin_same_before_after: 0
stall_proportion_bin_lower_before_after: 0
stall_proportion_bin_upper_before_after: 0
average_stall_proportion_before: -nan
average_stall_proportion_after: -nan
Critical IP stalls, total frequency: 0
Non-critical IP stalls, total frequency: 3374929
Total Freq all stalling IPs: 3374929
stat_90_percent_critical_ip_stalls_freq: 3037676
stat_90_percent_non_critical_ip_stalls_freq: 337253
Critical_IP_ROB_Stalls_Bucket_0: 0
Non-critical_IP_ROB_Stalls_Bucket_0: 2345894
Critical_IP_ROB_Stalls_Bucket_1: 0
Non-critical_IP_ROB_Stalls_Bucket_1: 698115
Critical_IP_ROB_Stalls_Bucket_2: 0
Non-critical_IP_ROB_Stalls_Bucket_2: 237282
Critical_IP_ROB_Stalls_Bucket_3: 0
Non-critical_IP_ROB_Stalls_Bucket_3: 60681
Critical_IP_ROB_Stalls_Bucket_4: 0
Non-critical_IP_ROB_Stalls_Bucket_4: 20946
Critical_IP_ROB_Stalls_Bucket_5: 0
Non-critical_IP_ROB_Stalls_Bucket_5: 5917
Critical_IP_ROB_Stalls_Bucket_6: 0
Non-critical_IP_ROB_Stalls_Bucket_6: 6094
0 => IPs accounting for >50 percent of stalls, 1 => 55, 2 => 60, 3 => 65 and so on till 90.
percent50: 50.017 num IPs:  428
percent55: 55.0094 num IPs: 610
percent60: 60.0205 num IPs: 821
percent65: 65.0167 num IPs: 1036
percent70: 70.0034 num IPs: 1258
percent75: 75.0192 num IPs: 1482
percent80: 80.0124 num IPs: 1708
percent85: 85.0124 num IPs: 1944
percent90: 90.0066 num IPs: 2219
Critical_ROB_Stalls_Percent_0_Bucket_0: 1001337
Non-critical_ROB_Stalls_Percent_0_Bucket_0: 1344557
Critical_ROB_Stalls_Percent_0_Bucket_1: 429477
Non-critical_ROB_Stalls_Percent_0_Bucket_1: 268638
Critical_ROB_Stalls_Percent_0_Bucket_2: 177208
Non-critical_ROB_Stalls_Percent_0_Bucket_2: 60074
Critical_ROB_Stalls_Percent_0_Bucket_3: 52289
Non-critical_ROB_Stalls_Percent_0_Bucket_3: 8392
Critical_ROB_Stalls_Percent_0_Bucket_4: 17498
Non-critical_ROB_Stalls_Percent_0_Bucket_4: 3448
Critical_ROB_Stalls_Percent_0_Bucket_5: 4817
Non-critical_ROB_Stalls_Percent_0_Bucket_5: 1100
Critical_ROB_Stalls_Percent_0_Bucket_6: 5413
Non-critical_ROB_Stalls_Percent_0_Bucket_6: 681
Critical_ROB_Stalls_Percent_1_Bucket_0: 1123160
Non-critical_ROB_Stalls_Percent_1_Bucket_0: 1222734
Critical_ROB_Stalls_Percent_1_Bucket_1: 460640
Non-critical_ROB_Stalls_Percent_1_Bucket_1: 237475
Critical_ROB_Stalls_Percent_1_Bucket_2: 189289
Non-critical_ROB_Stalls_Percent_1_Bucket_2: 47993
Critical_ROB_Stalls_Percent_1_Bucket_3: 54388
Non-critical_ROB_Stalls_Percent_1_Bucket_3: 6293
Critical_ROB_Stalls_Percent_1_Bucket_4: 18700
Non-critical_ROB_Stalls_Percent_1_Bucket_4: 2246
Critical_ROB_Stalls_Percent_1_Bucket_5: 4918
Non-critical_ROB_Stalls_Percent_1_Bucket_5: 999
Critical_ROB_Stalls_Percent_1_Bucket_6: 5437
Non-critical_ROB_Stalls_Percent_1_Bucket_6: 657
Critical_ROB_Stalls_Percent_2_Bucket_0: 1233645
Non-critical_ROB_Stalls_Percent_2_Bucket_0: 1112249
Critical_ROB_Stalls_Percent_2_Bucket_1: 509634
Non-critical_ROB_Stalls_Percent_2_Bucket_1: 188481
Critical_ROB_Stalls_Percent_2_Bucket_2: 198196
Non-critical_ROB_Stalls_Percent_2_Bucket_2: 39086
Critical_ROB_Stalls_Percent_2_Bucket_3: 54997
Non-critical_ROB_Stalls_Percent_2_Bucket_3: 5684
Critical_ROB_Stalls_Percent_2_Bucket_4: 18809
Non-critical_ROB_Stalls_Percent_2_Bucket_4: 2137
Critical_ROB_Stalls_Percent_2_Bucket_5: 4937
Non-critical_ROB_Stalls_Percent_2_Bucket_5: 980
Critical_ROB_Stalls_Percent_2_Bucket_6: 5439
Non-critical_ROB_Stalls_Percent_2_Bucket_6: 655
Critical_ROB_Stalls_Percent_3_Bucket_0: 1368677
Non-critical_ROB_Stalls_Percent_3_Bucket_0: 977217
Critical_ROB_Stalls_Percent_3_Bucket_1: 536373
Non-critical_ROB_Stalls_Percent_3_Bucket_1: 161742
Critical_ROB_Stalls_Percent_3_Bucket_2: 204680
Non-critical_ROB_Stalls_Percent_3_Bucket_2: 32602
Critical_ROB_Stalls_Percent_3_Bucket_3: 55301
Non-critical_ROB_Stalls_Percent_3_Bucket_3: 5380
Critical_ROB_Stalls_Percent_3_Bucket_4: 18846
Non-critical_ROB_Stalls_Percent_3_Bucket_4: 2100
Critical_ROB_Stalls_Percent_3_Bucket_5: 4940
Non-critical_ROB_Stalls_Percent_3_Bucket_5: 977
Critical_ROB_Stalls_Percent_3_Bucket_6: 5458
Non-critical_ROB_Stalls_Percent_3_Bucket_6: 636
Critical_ROB_Stalls_Percent_4_Bucket_0: 1498471
Non-critical_ROB_Stalls_Percent_4_Bucket_0: 847423
Critical_ROB_Stalls_Percent_4_Bucket_1: 565898
Non-critical_ROB_Stalls_Percent_4_Bucket_1: 132217
Critical_ROB_Stalls_Percent_4_Bucket_2: 212814
Non-critical_ROB_Stalls_Percent_4_Bucket_2: 24468
Critical_ROB_Stalls_Percent_4_Bucket_3: 55944
Non-critical_ROB_Stalls_Percent_4_Bucket_3: 4737
Critical_ROB_Stalls_Percent_4_Bucket_4: 19041
Non-critical_ROB_Stalls_Percent_4_Bucket_4: 1905
Critical_ROB_Stalls_Percent_4_Bucket_5: 4944
Non-critical_ROB_Stalls_Percent_4_Bucket_5: 973
Critical_ROB_Stalls_Percent_4_Bucket_6: 5459
Non-critical_ROB_Stalls_Percent_4_Bucket_6: 635
Critical_ROB_Stalls_Percent_5_Bucket_0: 1637953
Non-critical_ROB_Stalls_Percent_5_Bucket_0: 707941
Critical_ROB_Stalls_Percent_5_Bucket_1: 592409
Non-critical_ROB_Stalls_Percent_5_Bucket_1: 105706
Critical_ROB_Stalls_Percent_5_Bucket_2: 216081
Non-critical_ROB_Stalls_Percent_5_Bucket_2: 21201
Critical_ROB_Stalls_Percent_5_Bucket_3: 55970
Non-critical_ROB_Stalls_Percent_5_Bucket_3: 4711
Critical_ROB_Stalls_Percent_5_Bucket_4: 19041
Non-critical_ROB_Stalls_Percent_5_Bucket_4: 1905
Critical_ROB_Stalls_Percent_5_Bucket_5: 4945
Non-critical_ROB_Stalls_Percent_5_Bucket_5: 972
Critical_ROB_Stalls_Percent_5_Bucket_6: 5459
Non-critical_ROB_Stalls_Percent_5_Bucket_6: 635
Critical_ROB_Stalls_Percent_6_Bucket_0: 1781132
Non-critical_ROB_Stalls_Percent_6_Bucket_0: 564762
Critical_ROB_Stalls_Percent_6_Bucket_1: 613484
Non-critical_ROB_Stalls_Percent_6_Bucket_1: 84631
Critical_ROB_Stalls_Percent_6_Bucket_2: 220137
Non-critical_ROB_Stalls_Percent_6_Bucket_2: 17145
Critical_ROB_Stalls_Percent_6_Bucket_3: 56108
Non-critical_ROB_Stalls_Percent_6_Bucket_3: 4573
Critical_ROB_Stalls_Percent_6_Bucket_4: 19066
Non-critical_ROB_Stalls_Percent_6_Bucket_4: 1880
Critical_ROB_Stalls_Percent_6_Bucket_5: 4961
Non-critical_ROB_Stalls_Percent_6_Bucket_5: 956
Critical_ROB_Stalls_Percent_6_Bucket_6: 5489
Non-critical_ROB_Stalls_Percent_6_Bucket_6: 605
Critical_ROB_Stalls_Percent_7_Bucket_0: 1927804
Non-critical_ROB_Stalls_Percent_7_Bucket_0: 418090
Critical_ROB_Stalls_Percent_7_Bucket_1: 632342
Non-critical_ROB_Stalls_Percent_7_Bucket_1: 65773
Critical_ROB_Stalls_Percent_7_Bucket_2: 223101
Non-critical_ROB_Stalls_Percent_7_Bucket_2: 14181
Critical_ROB_Stalls_Percent_7_Bucket_3: 56286
Non-critical_ROB_Stalls_Percent_7_Bucket_3: 4395
Critical_ROB_Stalls_Percent_7_Bucket_4: 19135
Non-critical_ROB_Stalls_Percent_7_Bucket_4: 1811
Critical_ROB_Stalls_Percent_7_Bucket_5: 4965
Non-critical_ROB_Stalls_Percent_7_Bucket_5: 952
Critical_ROB_Stalls_Percent_7_Bucket_6: 5489
Non-critical_ROB_Stalls_Percent_7_Bucket_6: 605
Critical_ROB_Stalls_Percent_8_Bucket_0: 2073780
Non-critical_ROB_Stalls_Percent_8_Bucket_0: 272114
Critical_ROB_Stalls_Percent_8_Bucket_1: 649474
Non-critical_ROB_Stalls_Percent_8_Bucket_1: 48641
Critical_ROB_Stalls_Percent_8_Bucket_2: 225529
Non-critical_ROB_Stalls_Percent_8_Bucket_2: 11753
Critical_ROB_Stalls_Percent_8_Bucket_3: 57449
Non-critical_ROB_Stalls_Percent_8_Bucket_3: 3232
Critical_ROB_Stalls_Percent_8_Bucket_4: 19858
Non-critical_ROB_Stalls_Percent_8_Bucket_4: 1088
Critical_ROB_Stalls_Percent_8_Bucket_5: 5661
Non-critical_ROB_Stalls_Percent_8_Bucket_5: 256
Critical_ROB_Stalls_Percent_8_Bucket_6: 5925
Non-critical_ROB_Stalls_Percent_8_Bucket_6: 169
Average ROB occupancy Load Stall Begin: 37.006
Average ROB occupancy Load Stall End: 45.7613
Min ROB occupancy Load Stall Begin: 1
Max ROB occupancy Load Stall Begin: 352
Min ROB occupancy Load Stall End: 1
Max ROB occupancy Load Stall End: 352
Average ROB occupancy Critical Load Stall Begin: -nan
Average ROB occupancy Critical Load Stall End: -nan
Min ROB occupancy Critical Load Stall Begin: 400
Max ROB occupancy Critical Load Stall Begin: 0
Min ROB occupancy Critical Load Stall End: 400
Max ROB occupancy Critical Load Stall End: 0
 ROB Load Stall Begin Bucket Count 0: 2603080
 ROB Load Stall End Bucket Count 0: 2345894
 ROB Critical Load Stall Begin Bucket Count 0: 0
 ROB Critical Load Stall End Bucket Count 0: 0
 ROB Load Stall Begin Bucket Count 1: 518747
 ROB Load Stall End Bucket Count 1: 698115
 ROB Critical Load Stall Begin Bucket Count 1: 0
 ROB Critical Load Stall End Bucket Count 1: 0
 ROB Load Stall Begin Bucket Count 2: 180131
 ROB Load Stall End Bucket Count 2: 237282
 ROB Critical Load Stall Begin Bucket Count 2: 0
 ROB Critical Load Stall End Bucket Count 2: 0
 ROB Load Stall Begin Bucket Count 3: 46954
 ROB Load Stall End Bucket Count 3: 60681
 ROB Critical Load Stall Begin Bucket Count 3: 0
 ROB Critical Load Stall End Bucket Count 3: 0
 ROB Load Stall Begin Bucket Count 4: 15871
 ROB Load Stall End Bucket Count 4: 20946
 ROB Critical Load Stall Begin Bucket Count 4: 0
 ROB Critical Load Stall End Bucket Count 4: 0
 ROB Load Stall Begin Bucket Count 5: 4688
 ROB Load Stall End Bucket Count 5: 5917
 ROB Critical Load Stall Begin Bucket Count 5: 0
 ROB Critical Load Stall End Bucket Count 5: 0
 ROB Load Stall Begin Bucket Count 6: 5458
 ROB Load Stall End Bucket Count 6: 6094
 ROB Critical Load Stall Begin Bucket Count 6: 0
 ROB Critical Load Stall End Bucket Count 6: 0
PIST Tag Read Accesses: 2443124
PIST Read Accesses: 1221562
PIST Tag Write Accesses: 2443124
PIST Write Accesses: 1221562
Criticality detector called times: 3286378
Max global_stall_cycles_count: 2004510
Threshold Modified: 1 times, factor: -1
Sturdy critical IP cache stats: 
 Unused entries: 0
CIC Tag Read Accesses: 0
CIC Read Accesses: 0
CIC Tag Write Accesses: 0
CIC Write Accesses: 0
Wobbly critical IP cache stats: 
 Unused entries: 124
CIC Tag Read Accesses: 82700264
CIC Read Accesses: 0
CIC Tag Write Accesses: 4
CIC Write Accesses: 0
ITLB TOTAL     ACCESS:   10443456  HIT:    9687069  MISS:     756387  HIT %:    92.7573  MISS %:    7.24269   MPKI: 15.1277
ITLB LOAD TRANSLATION ACCESS:    8321968  HIT:    8268662  MISS:      53306  HIT %:    99.3595  MISS %:   0.640546   MPKI: 1.06612
ITLB TRANSLATION FROM L1D PREFETCHER ACCESS:    2121488  HIT:    1418407  MISS:     703081  HIT %:    66.8591  MISS %:    33.1409   MPKI: 14.0616
ITLB PREFETCH  REQUESTED:          0  ISSUED:          0  USEFUL:     554126  USELESS:     148956
ITLB USEFUL LOAD PREFETCHES:     554126 PREFETCH ISSUED TO LOWER LEVEL:          0  ACCURACY: inf
ITLB TIMELY PREFETCHES:     554126 LATE PREFETCHES: 108 DROPPED PREFETCHES: 4691
ITLB PREFETCHES SAME FILL-ORIGIN LEVEL: 0 DIFFERENT FILL-ORIGIN LEVEL: 0
ITLB AVERAGE MISS LATENCY: 7072.69 cycles
ITLB RQ	ACCESS:   15781026	FORWARD:          0	MERGED:    5288123	TO_CACHE:   10492903

DTLB TOTAL     ACCESS:   11107629  HIT:   10568636  MISS:     538993  HIT %:    95.1475  MISS %:    4.85246   MPKI: 10.7799
DTLB LOAD TRANSLATION ACCESS:   11107629  HIT:   10568636  MISS:     538993  HIT %:    95.1475  MISS %:    4.85246   MPKI: 10.7799
DTLB PREFETCH  REQUESTED:          0  ISSUED:          0  USEFUL:          0  USELESS:          0
DTLB USEFUL LOAD PREFETCHES:          0 PREFETCH ISSUED TO LOWER LEVEL:          0  ACCURACY: -nan
DTLB TIMELY PREFETCHES:          0 LATE PREFETCHES: 0 DROPPED PREFETCHES: 0
DTLB PREFETCHES SAME FILL-ORIGIN LEVEL: 0 DIFFERENT FILL-ORIGIN LEVEL: 0
DTLB AVERAGE MISS LATENCY: 11.1305 cycles
DTLB RQ	ACCESS:   14597620	FORWARD:          0	MERGED:    3462052	TO_CACHE:   11135568

STLB TOTAL     ACCESS:    1322115  HIT:    1303204  MISS:      18911  HIT %:    98.5696  MISS %:    1.43036   MPKI: 0.37822
STLB LOAD TRANSLATION ACCESS:     592191  HIT:     576453  MISS:      15738  HIT %:    97.3424  MISS %:    2.65759   MPKI: 0.31476
STLB TRANSLATION FROM L1D PREFETCHER ACCESS:     729924  HIT:     726751  MISS:       3173  HIT %:    99.5653  MISS %:   0.434703   MPKI: 0.06346
STLB PREFETCH  REQUESTED:          0  ISSUED:          0  USEFUL:        982  USELESS:       2190
STLB USEFUL LOAD PREFETCHES:        982 PREFETCH ISSUED TO LOWER LEVEL:          0  ACCURACY: inf
STLB TIMELY PREFETCHES:        982 LATE PREFETCHES: 0 DROPPED PREFETCHES: 4691
STLB PREFETCHES SAME FILL-ORIGIN LEVEL: 0 DIFFERENT FILL-ORIGIN LEVEL: 0
STLB AVERAGE MISS LATENCY: 65.8658 cycles
STLB RQ	ACCESS:    1347268	FORWARD:          0	MERGED:      20462	TO_CACHE:    1326806

STLB Hit, L1D data hit: 0
STLB Hit, L2C data hit: 0
STLB Hit, LLC data hit: 0
STLB Hit, LLC data miss: 0
STLB STLB hints to L2: 0
L1D TOTAL     ACCESS:   14107918  HIT:   12642414  MISS:    1465504  HIT %:    89.6122  MISS %:    10.3878   MPKI: 29.3101
L1D LOAD      ACCESS:    7873241  HIT:    6745949  MISS:    1127292  HIT %:     85.682  MISS %:     14.318   MPKI: 22.5458
L1D RFO       ACCESS:    6190580  HIT:    5883671  MISS:     306909  HIT %:    95.0423  MISS %:    4.95768   MPKI: 6.13818
L1D PREFETCH  ACCESS:      44097  HIT:      12794  MISS:      31303  HIT %:    29.0133  MISS %:    70.9867   MPKI: 0.62606
L1D PREFETCH  REQUESTED:      94418  ISSUED:      94403  USEFUL:      10536  USELESS:      20894
L1D USEFUL LOAD PREFETCHES:      10536 PREFETCH ISSUED TO LOWER LEVEL:      33249  ACCURACY: 31.6882
L1D TIMELY PREFETCHES:      10536 LATE PREFETCHES: 1944 DROPPED PREFETCHES: 0
L1D PREFETCHES SAME FILL-ORIGIN LEVEL: 33249 DIFFERENT FILL-ORIGIN LEVEL: 0
L1D AVERAGE MISS LATENCY: 25688.3 cycles
L1D RQ	ACCESS:   11209310	FORWARD:          0	MERGED:    3150501	TO_CACHE:    7914186
L1D WQ	ACCESS:    6759297	FORWARD:     144632	MERGED:      75863	TO_CACHE:    6683434
L1D PQ	ACCESS:      47206	FORWARD:          0	MERGED:          0	TO_CACHE:      47197

L1D UNIQUE REGIONS ACCESSED: 0
L1D REGIONS CONFLICTS: 0
L1D Cross Page Prefetch Requests: 0
L1D Same Page Prefetch Requests: 882558
L1D ROI Sum of L1D PQ occupancy: 612053
L1D PREFETCHES PUSHED FROM L2C: 0
L1I TOTAL     ACCESS:   15693138  HIT:   11451234  MISS:    4241904  HIT %:    72.9697  MISS %:    27.0303   MPKI: 84.8381
L1I LOAD      ACCESS:    9766782  HIT:    9677341  MISS:      89441  HIT %:    99.0842  MISS %:   0.915767   MPKI: 1.78882
L1I PREFETCH  ACCESS:    5926356  HIT:    1773893  MISS:    4152463  HIT %:    29.9323  MISS %:    70.0677   MPKI: 83.0493
L1I PREFETCH  REQUESTED:    6129053  ISSUED:    6112557  USEFUL:    2920975  USELESS:    1231493
L1I USEFUL LOAD PREFETCHES:    2920975 PREFETCH ISSUED TO LOWER LEVEL:    4167832  ACCURACY: 70.0838
L1I TIMELY PREFETCHES:    2920975 LATE PREFETCHES: 15367 DROPPED PREFETCHES: 11035
L1I PREFETCHES SAME FILL-ORIGIN LEVEL: 4167832 DIFFERENT FILL-ORIGIN LEVEL: 0
L1I AVERAGE MISS LATENCY: 191006 cycles
L1I RQ	ACCESS:   13599669	FORWARD:          0	MERGED:    3822235	TO_CACHE:    9777434
L1I PQ	ACCESS:    6112557	FORWARD:          0	MERGED:     108965	TO_CACHE:    6003592

BTB TOTAL     ACCESS:    6140417  HIT:    4333497  MISS:    1806920  HIT %:    70.5733  MISS %:    29.4267   MPKI: 36.1384
BTB BRANCH_DIRECT_JUMP	ACCESS:     523489  HIT:     378260  MISS:     145229
BTB BRANCH_INDIRECT	ACCESS:     166997  HIT:     132278  MISS:      34719
BTB BRANCH_CONDITIONAL	ACCESS:    3096552  HIT:    2604377  MISS:     492175
BTB BRANCH_DIRECT_CALL	ACCESS:     989486  HIT:     640103  MISS:     349383
BTB BRANCH_INDIRECT_CALL	ACCESS:     187202  HIT:     119541  MISS:      67661
BTB BRANCH_RETURN	ACCESS:    1176691  HIT:     458938  MISS:     717753
BTB BRANCH_OTHER ACCESS:          0  HIT:          0  MISS:          0

L2C TOTAL     ACCESS:    6329525  HIT:    5934689  MISS:     394836  HIT %:     93.762  MISS %:      6.238   MPKI: 7.89672
L2C LOAD      ACCESS:    1199373  HIT:    1059950  MISS:     139423  HIT %:    88.3753  MISS %:    11.6247   MPKI: 2.78846
L2C DATA LOAD MPKI: 2.6264
L2C INSTRUCTION LOAD MPKI: 0.16206
L2C RFO       ACCESS:     306907  HIT:     284271  MISS:      22636  HIT %:    92.6245  MISS %:    7.37552   MPKI: 0.45272
L2C PREFETCH  ACCESS:    4201076  HIT:    3988930  MISS:     212146  HIT %:    94.9502  MISS %:     5.0498   MPKI: 4.24292
L2C DATA PREFETCH MPKI: 0.30316
L2C INSTRUCTION PREFETCH MPKI: 3.93976
L2C WRITEBACK ACCESS:     587856  HIT:     578493  MISS:       9363  HIT %:    98.4073  MISS %:    1.59274   MPKI: 0.18726
L2C LOAD TRANSLATION ACCESS:      23504  HIT:      13118  MISS:      10386  HIT %:    55.8118  MISS %:    44.1882   MPKI: 0.20772
L2C TRANSLATION FROM L1D PREFETCHER ACCESS:      10809  HIT:       9927  MISS:        882  HIT %:    91.8401  MISS %:    8.15987   MPKI: 0.01764
L2C PREFETCH  REQUESTED:          0  ISSUED:          0  USEFUL:       2987  USELESS:     211590
L2C USEFUL LOAD PREFETCHES:       2987 PREFETCH ISSUED TO LOWER LEVEL:     212146  ACCURACY: 1.40799
L2C TIMELY PREFETCHES:       2987 LATE PREFETCHES: 0 DROPPED PREFETCHES: 0
L2C PREFETCHES SAME FILL-ORIGIN LEVEL: 0 DIFFERENT FILL-ORIGIN LEVEL: 0
L2C AVERAGE MISS LATENCY: 43.031 cycles
L2C RQ	ACCESS:    1540641	FORWARD:          0	MERGED:          0	TO_CACHE:    1540593
L2C WQ	ACCESS:     587856	FORWARD:         51	MERGED:          0	TO_CACHE:     587856
L2C PQ	ACCESS:    4201081	FORWARD:          0	MERGED:          0	TO_CACHE:    4201078

L2C Instructions Evicting Data 77764
L2C Translations Evicting Data 7204
L2C Data Evicting Data 90258
L2C Instructions Evicting Instructions 124332
L2C Translations Evicting Instructions 3149
L2C Data Evicting Instructions 71759
L2C Instructions Evicting Translations 2995
L2C Translations Evicting Translations 915
L2C Data Evicting Translations 7097
L2C Dense regions hint from L2: 0
PSCL5 TOTAL     ACCESS:      23602  HIT:      23602  MISS:          0  HIT %:        100  MISS %:          0   MPKI: 0
PSCL5 LOAD TRANSLATION ACCESS:      15738  HIT:      15738  MISS:          0  HIT %:        100  MISS %:          0   MPKI: 0
PSCL5 TRANSLATION FROM L1D PREFETCHER ACCESS:       7864  HIT:       7864  MISS:          0  HIT %:        100  MISS %:          0   MPKI: 0
PSCL5 PREFETCH  REQUESTED:          0  ISSUED:          0  USEFUL:          0  USELESS:          0
PSCL5 USEFUL LOAD PREFETCHES:          0 PREFETCH ISSUED TO LOWER LEVEL:          0  ACCURACY: -nan
PSCL5 TIMELY PREFETCHES:          0 LATE PREFETCHES: 0 DROPPED PREFETCHES: 0
PSCL5 PREFETCHES SAME FILL-ORIGIN LEVEL: 0 DIFFERENT FILL-ORIGIN LEVEL: 0

PSCL4 TOTAL     ACCESS:      22969  HIT:      22782  MISS:        187  HIT %:    99.1859  MISS %:   0.814141   MPKI: 0.00374
PSCL4 LOAD TRANSLATION ACCESS:      15227  HIT:      15040  MISS:        187  HIT %:    98.7719  MISS %:    1.22808   MPKI: 0.00374
PSCL4 TRANSLATION FROM L1D PREFETCHER ACCESS:       7742  HIT:       7742  MISS:          0  HIT %:        100  MISS %:          0   MPKI: 0
PSCL4 PREFETCH  REQUESTED:          0  ISSUED:          0  USEFUL:          0  USELESS:          0
PSCL4 USEFUL LOAD PREFETCHES:          0 PREFETCH ISSUED TO LOWER LEVEL:          0  ACCURACY: -nan
PSCL4 TIMELY PREFETCHES:          0 LATE PREFETCHES: 0 DROPPED PREFETCHES: 0
PSCL4 PREFETCHES SAME FILL-ORIGIN LEVEL: 0 DIFFERENT FILL-ORIGIN LEVEL: 0

PSCL3 TOTAL     ACCESS:      23443  HIT:      23256  MISS:        187  HIT %:    99.2023  MISS %:   0.797679   MPKI: 0.00374
PSCL3 LOAD TRANSLATION ACCESS:      15701  HIT:      15514  MISS:        187  HIT %:     98.809  MISS %:    1.19101   MPKI: 0.00374
PSCL3 TRANSLATION FROM L1D PREFETCHER ACCESS:       7742  HIT:       7742  MISS:          0  HIT %:        100  MISS %:          0   MPKI: 0
PSCL3 PREFETCH  REQUESTED:          0  ISSUED:          0  USEFUL:          0  USELESS:          0
PSCL3 USEFUL LOAD PREFETCHES:          0 PREFETCH ISSUED TO LOWER LEVEL:          0  ACCURACY: -nan
PSCL3 TIMELY PREFETCHES:          0 LATE PREFETCHES: 0 DROPPED PREFETCHES: 0
PSCL3 PREFETCHES SAME FILL-ORIGIN LEVEL: 0 DIFFERENT FILL-ORIGIN LEVEL: 0

PSCL2 TOTAL     ACCESS:      21745  HIT:      13313  MISS:       8432  HIT %:    61.2233  MISS %:    38.7767   MPKI: 0.16864
PSCL2 LOAD TRANSLATION ACCESS:      16732  HIT:       8300  MISS:       8432  HIT %:    49.6055  MISS %:    50.3945   MPKI: 0.16864
PSCL2 TRANSLATION FROM L1D PREFETCHER ACCESS:       5013  HIT:       5013  MISS:          0  HIT %:        100  MISS %:          0   MPKI: 0
PSCL2 PREFETCH  REQUESTED:          0  ISSUED:          0  USEFUL:          0  USELESS:          0
PSCL2 USEFUL LOAD PREFETCHES:          0 PREFETCH ISSUED TO LOWER LEVEL:          0  ACCURACY: -nan
PSCL2 TIMELY PREFETCHES:          0 LATE PREFETCHES: 0 DROPPED PREFETCHES: 0
PSCL2 PREFETCHES SAME FILL-ORIGIN LEVEL: 0 DIFFERENT FILL-ORIGIN LEVEL: 0

LLC TOTAL     ACCESS:     418481  HIT:     380411  MISS:      38070  HIT %:    90.9028  MISS %:    9.09719   MPKI: 0.7614
LLC LOAD      ACCESS:     139423  HIT:     112738  MISS:      26685  HIT %:    80.8604  MISS %:    19.1396   MPKI: 0.5337
LLC RFO       ACCESS:      22636  HIT:      20687  MISS:       1949  HIT %:    91.3898  MISS %:    8.61018   MPKI: 0.03898
LLC PREFETCH  ACCESS:     212146  HIT:     204439  MISS:       7707  HIT %:    96.3671  MISS %:    3.63288   MPKI: 0.15414
LLC WRITEBACK ACCESS:      33008  HIT:      32815  MISS:        193  HIT %:    99.4153  MISS %:   0.584707   MPKI: 0.00386
LLC LOAD TRANSLATION ACCESS:      10386  HIT:       8875  MISS:       1511  HIT %:    85.4516  MISS %:    14.5484   MPKI: 0.03022
LLC TRANSLATION FROM L1D PREFETCHER ACCESS:        882  HIT:        857  MISS:         25  HIT %:    97.1655  MISS %:    2.83447   MPKI: 0.0005
LLC PREFETCH  REQUESTED:          0  ISSUED:          0  USEFUL:       1729  USELESS:      16702
LLC USEFUL LOAD PREFETCHES:       1729 PREFETCH ISSUED TO LOWER LEVEL:       7707  ACCURACY: 22.4342
LLC TIMELY PREFETCHES:       1729 LATE PREFETCHES: 0 DROPPED PREFETCHES: 0
LLC PREFETCHES SAME FILL-ORIGIN LEVEL: 0 DIFFERENT FILL-ORIGIN LEVEL: 0
LLC AVERAGE MISS LATENCY: 141.97 cycles
LLC RQ	ACCESS:     173327	FORWARD:          0	MERGED:          0	TO_CACHE:     173327
LLC WQ	ACCESS:      33008	FORWARD:          0	MERGED:          0	TO_CACHE:      33008
LLC PQ	ACCESS:     212146	FORWARD:          0	MERGED:          0	TO_CACHE:     212146

LLC Dense regions hint to LLC: 0

RAW hits: 1080221
Loads Generated: 12289536
Loads sent to L1D: 11209310
Stores Generated: 6759292
Stores sent to L1D: 6759297
Major fault: 0 Minor fault: 6256
Allocated PAGES: 6256
I-Shadow cache 408 bytes
Touched + WorthPF tables 6144 bytes 
MMA filter 174 bytes 
FNL filter 272 bytes 
TOTAL PREFETCHER STORAGE SIZE: 25174 bytes
CPU 0 L1I next line prefetcher final stats

stream: 
stream:times selected: 1727647
stream:pref_filled: 120929
stream:pref_useful: 25753
stream:pref_late: 6084
stream:misses: 24098
stream:misses_by_poll: 0

CS: 
CS:times selected: 230339
CS:pref_filled: 55346
CS:pref_useful: 44144
CS:pref_late: 1839
CS:misses: 109419
CS:misses_by_poll: 1

CPLX: 
CPLX:times selected: 1493731
CPLX:pref_filled: 361035
CPLX:pref_useful: 188029
CPLX:pref_late: 6615
CPLX:misses: 347241
CPLX:misses_by_poll: 23

NL_L1: 
NL:times selected: 3941
NL:pref_filled: 247
NL:pref_useful: 22
NL:pref_late: 22
NL:misses: 329
NL:misses_by_poll: 0

total selections: 3455658
total_filled: 31303
total_useful: 10536
total_late: 17362
total_polluted: 24
total_misses_after_warmup: 1168235
conflicts: 2937094
Degree Incremented Times: 31544
Degree Decremented Times: 70294

L1 IP Table Write Accesses: 4721394
L1 IP Table Read Accesses: 1784300
L1 RST Write Accesses: 854804
L1 RST Read Accesses: 1709608
L1 CSPT Write Accesses: 854804
L1 CSPT Read Accesses: 2838870
L1 RR Filter Tag Write Accesses: 47221
L1 RR Filter Tag Read Accesses: 3326257
L1 IP Table Tag Write Accesses: 7914184
L1 IP Table Tag Read Accesses: 7914184
L1 RST Tag Write Accesses: 0
L1 RST Tag Read Accesses: 6677947
L1 RR Filter Write Accesses: 0
L1 RR Filter Read Accesses: 118480
test: 279152

DRAM Statistics
 CHANNEL 0
 RQ ROW_BUFFER_HIT:      12216  ROW_BUFFER_MISS:      25661
 DBUS_CONGESTED:         14
 WQ ROW_BUFFER_HIT:        608  ROW_BUFFER_MISS:       1908  FULL:          0

 AVG_CONGESTED_CYCLE: 4
 All warmup complete: 2
Channel 0 Bank busy for read cycles: 0
Channel 0 Bank busy for write cycles: 0
Channel 0
Rank 0
0banks busy for read cycles: 77099536
0banks busy for write cycles: 1635
1banks busy for read cycles: 2363040
1banks busy for write cycles: 429199
2banks busy for read cycles: 498669
2banks busy for write cycles: 137729
3banks busy for read cycles: 203054
3banks busy for write cycles: 41643
4banks busy for read cycles: 68440
4banks busy for write cycles: 12499
5banks busy for read cycles: 14903
5banks busy for write cycles: 3881
6banks busy for read cycles: 6113
6banks busy for write cycles: 392
7banks busy for read cycles: 4911
7banks busy for write cycles: 470
8banks busy for read cycles: 8894
8banks busy for write cycles: 271

CPU 0 Branch Prediction Accuracy: 99.7093% MPKI: 0.54708 Average ROB Occupancy at Mispredict: 91.7122
Branch types
NOT_BRANCH: 40590650 81.1813%
BRANCH_DIRECT_JUMP: 523489 1.04698%
BRANCH_INDIRECT: 166997 0.333994%
BRANCH_CONDITIONAL: 6365151 12.7303%
BRANCH_DIRECT_CALL: 989486 1.97897%
BRANCH_INDIRECT_CALL: 187202 0.374404%
BRANCH_RETURN: 1176691 2.35338%
BRANCH_OTHER: 0 0%

DRAM PAGES: 1048576
Allocated PAGES: 6256
