Initialize SIGNATURE TABLE
ST_SET: 1
ST_WAY: 256
ST_TAG_BIT: 16
ST_TAG_MASK: ffff

Initialize PATTERN TABLE
PT_SET: 512
PT_WAY: 4
SIG_DELTA_BIT: 7
C_SIG_BIT: 4
C_DELTA_BIT: 4

Initialize PREFETCH FILTER
FILTER_SET: 1024

*** ChampSim Multicore Out-of-Order Simulator ***

Warmup Instructions: 50000000
Simulation Instructions: 50000000
Number of CPUs: 1
LLC sets: 2048
LLC ways: 16
Off-chip DRAM Size: 4096 MB Channels: 1 Width: 64-bit Data Rate: 6400 MT/s
CPU 0 runs ../IPC-traces//server_014.champsimtrace.xz
.xz
BTB has LRU replacement policy
ITLB has LRU replacement policy
DTLB has LRU replacement policy
STLB has LRU replacement policy
CPU 0 L1I next line prefetcher
L1I has LRU replacement policy
L1D has LRU replacement policy
Initialize SRRIP state for L2C
Initialize DRRIP state for LLC
Heartbeat CPU 0 instructions: 10000003 cycles: 2819487 heartbeat IPC: 3.54675 cumulative IPC: 3.54675 (Simulation time: 0 hr 5 min 17 sec) 
Heartbeat CPU 0 instructions: 20000002 cycles: 5668020 heartbeat IPC: 3.51058 cumulative IPC: 3.52857 (Simulation time: 0 hr 9 min 6 sec) 
Heartbeat CPU 0 instructions: 30000003 cycles: 8493669 heartbeat IPC: 3.53901 cumulative IPC: 3.53204 (Simulation time: 0 hr 12 min 53 sec) 
Heartbeat CPU 0 instructions: 40000002 cycles: 11321258 heartbeat IPC: 3.53658 cumulative IPC: 3.53318 (Simulation time: 0 hr 16 min 41 sec) 
Heartbeat CPU 0 instructions: 50000002 cycles: 14148619 heartbeat IPC: 3.53687 cumulative IPC: 3.53391 (Simulation time: 0 hr 19 min 43 sec) 

Warmup complete CPU 0 instructions: 50000002 cycles: 14148619 (Simulation time: 0 hr 19 min 43 sec) 

Heartbeat CPU 0 instructions: 60000000 cycles: 27460012 heartbeat IPC: 0.751236 cumulative IPC: 0.751236 (Simulation time: 0 hr 23 min 5 sec) 
Heartbeat CPU 0 instructions: 70000000 cycles: 40745979 heartbeat IPC: 0.752674 cumulative IPC: 0.751954 (Simulation time: 0 hr 26 min 26 sec) 
*** Reached end of trace for Core: 0 Repeating trace: ../IPC-traces//server_014.champsimtrace.xz
Heartbeat CPU 0 instructions: 80000001 cycles: 54063158 heartbeat IPC: 0.75091 cumulative IPC: 0.751606 (Simulation time: 0 hr 29 min 47 sec) 
Heartbeat CPU 0 instructions: 90000003 cycles: 68532082 heartbeat IPC: 0.691137 cumulative IPC: 0.735518 (Simulation time: 0 hr 33 min 14 sec) 
Heartbeat CPU 0 instructions: 100000000 cycles: 81994201 heartbeat IPC: 0.742825 cumulative IPC: 0.736968 (Simulation time: 0 hr 36 min 58 sec) 
Finished CPU 0 instructions: 50000003 cycles: 67845592 cumulative IPC: 0.736968 (Simulation time: 0 hr 36 min 58 sec) 

ChampSim completed all CPUs

Region of Interest Statistics

CPU 0 cumulative IPC: 0.736968 instructions: 50000003 cycles: 67845592

CPU 0 Average Load ROB stall cycles: 1.76251e+07
CPU 0 Fraction of times ROB stalled by Loads: 36.912
CPU 0 Percentage of Load stall cycles in Total stall cycles: 2.54512e+08
Issued all: 28765074
Issued LT all: 22712148
rob_not_full_when_issued_lt_all: 18460507
Issued LT one: 18121155
rob_not_full_when_issued_lt_one: 14213417
 Total stall cycles: 55863557
 Total load stall cycles: 142179575196225
Unique Load IPs: 15597
CPU 0 NUM of IPS identified critical: 2
CPU 0 Num of Load IPs stalling ROB: 0
Threshold modification factor: 0
Trouble in retire width: -nan
MaC = Marked as critical.
lt_50_percent_before_Mac: 1
gt_90_percent_before_Mac: 0
gt_75_percent_before_Mac: 1
gt_50_percent_before_Mac: 0
stall_proportion_bin_same_before_after: 0
stall_proportion_bin_lower_before_after: 0
stall_proportion_bin_upper_before_after: 0
average_stall_proportion_before: 0.0220601
average_stall_proportion_after: 0.0202136
Critical_IP_Detector_Accuracy_70: 0
Critical_IP_Detector_Accuracy_80: 0
Critical_IP_Detector_Accuracy_90: 0
Critical_IP_Detector_Coverage_70: 0
Critical_IP_Detector_Coverage_80: 0
Critical_IP_Detector_Coverage_90: 0
stat_90_percent_critical_ip_stalls_freq: 151167
stat_90_percent_non_critical_ip_stalls_freq: 18446744073709400449
AVERAGE_ROB_Occupancy_90_Percent_Critical_IP_Stalls: 272.149
AVERAGE_ROB_Occupancy_90_Percent_Non_Critical_IP_Stalls: 1.54556e-11
Critical_IP_ROB_Stalls_Bucket_0: 947
Non-critical_IP_ROB_Stalls_Bucket_0: 920361
Critical_IP_ROB_Stalls_Bucket_1: 365
Non-critical_IP_ROB_Stalls_Bucket_1: 974513
Critical_IP_ROB_Stalls_Bucket_2: 1
Non-critical_IP_ROB_Stalls_Bucket_2: 453184
Critical_IP_ROB_Stalls_Bucket_3: 0
Non-critical_IP_ROB_Stalls_Bucket_3: 156068
Critical_IP_ROB_Stalls_Bucket_4: 0
Non-critical_IP_ROB_Stalls_Bucket_4: 94302
Critical_IP_ROB_Stalls_Bucket_5: 0
Non-critical_IP_ROB_Stalls_Bucket_5: 88964
Critical_IP_ROB_Stalls_Bucket_6: 0
Non-critical_IP_ROB_Stalls_Bucket_6: 288945
0 => IPs accounting for >50 percent of stalls, 1 => 55, 2 => 60, 3 => 65 and so on till 90.
percent50: inf num IPs:  1
percent55: inf num IPs: 1
percent60: inf num IPs: 1
percent65: inf num IPs: 1
percent70: inf num IPs: 1
percent75: inf num IPs: 1
percent80: inf num IPs: 1
percent85: inf num IPs: 1
percent90: inf num IPs: 1
Critical_ROB_Stalls_Percent_0_Bucket_0: 5
Non-critical_ROB_Stalls_Percent_0_Bucket_0: 921303
Critical_ROB_Stalls_Percent_0_Bucket_1: 16
Non-critical_ROB_Stalls_Percent_0_Bucket_1: 974862
Critical_ROB_Stalls_Percent_0_Bucket_2: 15508
Non-critical_ROB_Stalls_Percent_0_Bucket_2: 437677
Critical_ROB_Stalls_Percent_0_Bucket_3: 23760
Non-critical_ROB_Stalls_Percent_0_Bucket_3: 132308
Critical_ROB_Stalls_Percent_0_Bucket_4: 16442
Non-critical_ROB_Stalls_Percent_0_Bucket_4: 77860
Critical_ROB_Stalls_Percent_0_Bucket_5: 24657
Non-critical_ROB_Stalls_Percent_0_Bucket_5: 64307
Critical_ROB_Stalls_Percent_0_Bucket_6: 70779
Non-critical_ROB_Stalls_Percent_0_Bucket_6: 218166
Critical_ROB_Stalls_Percent_1_Bucket_0: 5
Non-critical_ROB_Stalls_Percent_1_Bucket_0: 921303
Critical_ROB_Stalls_Percent_1_Bucket_1: 16
Non-critical_ROB_Stalls_Percent_1_Bucket_1: 974862
Critical_ROB_Stalls_Percent_1_Bucket_2: 15508
Non-critical_ROB_Stalls_Percent_1_Bucket_2: 437677
Critical_ROB_Stalls_Percent_1_Bucket_3: 23760
Non-critical_ROB_Stalls_Percent_1_Bucket_3: 132308
Critical_ROB_Stalls_Percent_1_Bucket_4: 16442
Non-critical_ROB_Stalls_Percent_1_Bucket_4: 77860
Critical_ROB_Stalls_Percent_1_Bucket_5: 24657
Non-critical_ROB_Stalls_Percent_1_Bucket_5: 64307
Critical_ROB_Stalls_Percent_1_Bucket_6: 70779
Non-critical_ROB_Stalls_Percent_1_Bucket_6: 218166
Critical_ROB_Stalls_Percent_2_Bucket_0: 5
Non-critical_ROB_Stalls_Percent_2_Bucket_0: 921303
Critical_ROB_Stalls_Percent_2_Bucket_1: 16
Non-critical_ROB_Stalls_Percent_2_Bucket_1: 974862
Critical_ROB_Stalls_Percent_2_Bucket_2: 15508
Non-critical_ROB_Stalls_Percent_2_Bucket_2: 437677
Critical_ROB_Stalls_Percent_2_Bucket_3: 23760
Non-critical_ROB_Stalls_Percent_2_Bucket_3: 132308
Critical_ROB_Stalls_Percent_2_Bucket_4: 16442
Non-critical_ROB_Stalls_Percent_2_Bucket_4: 77860
Critical_ROB_Stalls_Percent_2_Bucket_5: 24657
Non-critical_ROB_Stalls_Percent_2_Bucket_5: 64307
Critical_ROB_Stalls_Percent_2_Bucket_6: 70779
Non-critical_ROB_Stalls_Percent_2_Bucket_6: 218166
Critical_ROB_Stalls_Percent_3_Bucket_0: 5
Non-critical_ROB_Stalls_Percent_3_Bucket_0: 921303
Critical_ROB_Stalls_Percent_3_Bucket_1: 16
Non-critical_ROB_Stalls_Percent_3_Bucket_1: 974862
Critical_ROB_Stalls_Percent_3_Bucket_2: 15508
Non-critical_ROB_Stalls_Percent_3_Bucket_2: 437677
Critical_ROB_Stalls_Percent_3_Bucket_3: 23760
Non-critical_ROB_Stalls_Percent_3_Bucket_3: 132308
Critical_ROB_Stalls_Percent_3_Bucket_4: 16442
Non-critical_ROB_Stalls_Percent_3_Bucket_4: 77860
Critical_ROB_Stalls_Percent_3_Bucket_5: 24657
Non-critical_ROB_Stalls_Percent_3_Bucket_5: 64307
Critical_ROB_Stalls_Percent_3_Bucket_6: 70779
Non-critical_ROB_Stalls_Percent_3_Bucket_6: 218166
Critical_ROB_Stalls_Percent_4_Bucket_0: 5
Non-critical_ROB_Stalls_Percent_4_Bucket_0: 921303
Critical_ROB_Stalls_Percent_4_Bucket_1: 16
Non-critical_ROB_Stalls_Percent_4_Bucket_1: 974862
Critical_ROB_Stalls_Percent_4_Bucket_2: 15508
Non-critical_ROB_Stalls_Percent_4_Bucket_2: 437677
Critical_ROB_Stalls_Percent_4_Bucket_3: 23760
Non-critical_ROB_Stalls_Percent_4_Bucket_3: 132308
Critical_ROB_Stalls_Percent_4_Bucket_4: 16442
Non-critical_ROB_Stalls_Percent_4_Bucket_4: 77860
Critical_ROB_Stalls_Percent_4_Bucket_5: 24657
Non-critical_ROB_Stalls_Percent_4_Bucket_5: 64307
Critical_ROB_Stalls_Percent_4_Bucket_6: 70779
Non-critical_ROB_Stalls_Percent_4_Bucket_6: 218166
Critical_ROB_Stalls_Percent_5_Bucket_0: 5
Non-critical_ROB_Stalls_Percent_5_Bucket_0: 921303
Critical_ROB_Stalls_Percent_5_Bucket_1: 16
Non-critical_ROB_Stalls_Percent_5_Bucket_1: 974862
Critical_ROB_Stalls_Percent_5_Bucket_2: 15508
Non-critical_ROB_Stalls_Percent_5_Bucket_2: 437677
Critical_ROB_Stalls_Percent_5_Bucket_3: 23760
Non-critical_ROB_Stalls_Percent_5_Bucket_3: 132308
Critical_ROB_Stalls_Percent_5_Bucket_4: 16442
Non-critical_ROB_Stalls_Percent_5_Bucket_4: 77860
Critical_ROB_Stalls_Percent_5_Bucket_5: 24657
Non-critical_ROB_Stalls_Percent_5_Bucket_5: 64307
Critical_ROB_Stalls_Percent_5_Bucket_6: 70779
Non-critical_ROB_Stalls_Percent_5_Bucket_6: 218166
Critical_ROB_Stalls_Percent_6_Bucket_0: 5
Non-critical_ROB_Stalls_Percent_6_Bucket_0: 921303
Critical_ROB_Stalls_Percent_6_Bucket_1: 16
Non-critical_ROB_Stalls_Percent_6_Bucket_1: 974862
Critical_ROB_Stalls_Percent_6_Bucket_2: 15508
Non-critical_ROB_Stalls_Percent_6_Bucket_2: 437677
Critical_ROB_Stalls_Percent_6_Bucket_3: 23760
Non-critical_ROB_Stalls_Percent_6_Bucket_3: 132308
Critical_ROB_Stalls_Percent_6_Bucket_4: 16442
Non-critical_ROB_Stalls_Percent_6_Bucket_4: 77860
Critical_ROB_Stalls_Percent_6_Bucket_5: 24657
Non-critical_ROB_Stalls_Percent_6_Bucket_5: 64307
Critical_ROB_Stalls_Percent_6_Bucket_6: 70779
Non-critical_ROB_Stalls_Percent_6_Bucket_6: 218166
Critical_ROB_Stalls_Percent_7_Bucket_0: 5
Non-critical_ROB_Stalls_Percent_7_Bucket_0: 921303
Critical_ROB_Stalls_Percent_7_Bucket_1: 16
Non-critical_ROB_Stalls_Percent_7_Bucket_1: 974862
Critical_ROB_Stalls_Percent_7_Bucket_2: 15508
Non-critical_ROB_Stalls_Percent_7_Bucket_2: 437677
Critical_ROB_Stalls_Percent_7_Bucket_3: 23760
Non-critical_ROB_Stalls_Percent_7_Bucket_3: 132308
Critical_ROB_Stalls_Percent_7_Bucket_4: 16442
Non-critical_ROB_Stalls_Percent_7_Bucket_4: 77860
Critical_ROB_Stalls_Percent_7_Bucket_5: 24657
Non-critical_ROB_Stalls_Percent_7_Bucket_5: 64307
Critical_ROB_Stalls_Percent_7_Bucket_6: 70779
Non-critical_ROB_Stalls_Percent_7_Bucket_6: 218166
Critical_ROB_Stalls_Percent_8_Bucket_0: 5
Non-critical_ROB_Stalls_Percent_8_Bucket_0: 921303
Critical_ROB_Stalls_Percent_8_Bucket_1: 16
Non-critical_ROB_Stalls_Percent_8_Bucket_1: 974862
Critical_ROB_Stalls_Percent_8_Bucket_2: 15508
Non-critical_ROB_Stalls_Percent_8_Bucket_2: 437677
Critical_ROB_Stalls_Percent_8_Bucket_3: 23760
Non-critical_ROB_Stalls_Percent_8_Bucket_3: 132308
Critical_ROB_Stalls_Percent_8_Bucket_4: 16442
Non-critical_ROB_Stalls_Percent_8_Bucket_4: 77860
Critical_ROB_Stalls_Percent_8_Bucket_5: 24657
Non-critical_ROB_Stalls_Percent_8_Bucket_5: 64307
Critical_ROB_Stalls_Percent_8_Bucket_6: 70779
Non-critical_ROB_Stalls_Percent_8_Bucket_6: 218166
Average ROB occupancy Load Stall Begin: 101.173
Average ROB occupancy Load Stall End: 109.565
Min ROB occupancy Load Stall Begin: 1
Max ROB occupancy Load Stall Begin: 352
Min ROB occupancy Load Stall End: 1
Max ROB occupancy Load Stall End: 352
Average ROB occupancy Critical Load Stall Begin: 27.1396
Average ROB occupancy Critical Load Stall End: 29.5609
Min ROB occupancy Critical Load Stall Begin: 5
Max ROB occupancy Critical Load Stall Begin: 97
Min ROB occupancy Critical Load Stall End: 5
Max ROB occupancy Critical Load Stall End: 97
 ROB Load Stall Begin Bucket Count 0: 1224071
 ROB Load Stall End Bucket Count 0: 921308
 ROB Critical Load Stall Begin Bucket Count 0: 382
 ROB Critical Load Stall End Bucket Count 0: 351
 ROB Load Stall Begin Bucket Count 1: 801907
 ROB Load Stall End Bucket Count 1: 974878
 ROB Critical Load Stall Begin Bucket Count 1: 12
 ROB Critical Load Stall End Bucket Count 1: 43
 ROB Load Stall Begin Bucket Count 2: 353839
 ROB Load Stall End Bucket Count 2: 453185
 ROB Critical Load Stall Begin Bucket Count 2: 0
 ROB Critical Load Stall End Bucket Count 2: 0
 ROB Load Stall Begin Bucket Count 3: 136517
 ROB Load Stall End Bucket Count 3: 156068
 ROB Critical Load Stall Begin Bucket Count 3: 0
 ROB Critical Load Stall End Bucket Count 3: 0
 ROB Load Stall Begin Bucket Count 4: 89622
 ROB Load Stall End Bucket Count 4: 94302
 ROB Critical Load Stall Begin Bucket Count 4: 0
 ROB Critical Load Stall End Bucket Count 4: 0
 ROB Load Stall Begin Bucket Count 5: 90296
 ROB Load Stall End Bucket Count 5: 88964
 ROB Critical Load Stall Begin Bucket Count 5: 0
 ROB Critical Load Stall End Bucket Count 5: 0
 ROB Load Stall Begin Bucket Count 6: 281398
 ROB Load Stall End Bucket Count 6: 288945
 ROB Critical Load Stall Begin Bucket Count 6: 0
 ROB Critical Load Stall End Bucket Count 6: 0
PIST Tag Read Accesses: 0
PIST Read Accesses: 0
PIST Tag Write Accesses: 0
PIST Write Accesses: 0
Criticality detector called times: 0
Max global_stall_cycles_count: 0
Threshold Modified: 0 times, factor: 0
Sturdy critical IP cache stats: 
 Unused entries: 0
CIC Tag Read Accesses: 0
CIC Read Accesses: 0
CIC Tag Write Accesses: 0
CIC Write Accesses: 0
Wobbly critical IP cache stats: 
 Unused entries: 26
CIC Tag Read Accesses: 159374451
CIC Read Accesses: 0
CIC Tag Write Accesses: 4172
CIC Write Accesses: 0
ITLB TOTAL     ACCESS:   10414691  HIT:   10009717  MISS:     404974  HIT %:    96.1115  MISS %:    3.88849   MPKI: 8.09948
ITLB LOAD TRANSLATION ACCESS:    8215953  HIT:    8179774  MISS:      36179  HIT %:    99.5596  MISS %:   0.440351   MPKI: 0.72358
ITLB TRANSLATION FROM L1D PREFETCHER ACCESS:    2198738  HIT:    1829943  MISS:     368795  HIT %:     83.227  MISS %:     16.773   MPKI: 7.3759
ITLB PREFETCH  REQUESTED:          0  ISSUED:          0  USEFUL:     323079  USELESS:      45713
ITLB USEFUL LOAD PREFETCHES:     323079 PREFETCH ISSUED TO LOWER LEVEL:          0  ACCURACY: inf
ITLB TIMELY PREFETCHES:     323079 LATE PREFETCHES: 51 DROPPED PREFETCHES: 29
ITLB PREFETCHES SAME FILL-ORIGIN LEVEL: 0 DIFFERENT FILL-ORIGIN LEVEL: 0
ITLB AVERAGE MISS LATENCY: 6288.09 cycles
ITLB RQ	ACCESS:   15260329	FORWARD:          0	MERGED:    4800101	TO_CACHE:   10460228

DTLB TOTAL     ACCESS:   10788598  HIT:   10598260  MISS:     190338  HIT %:    98.2357  MISS %:    1.76425   MPKI: 3.80676
DTLB LOAD TRANSLATION ACCESS:   10788598  HIT:   10598260  MISS:     190338  HIT %:    98.2357  MISS %:    1.76425   MPKI: 3.80676
DTLB PREFETCH  REQUESTED:          0  ISSUED:          0  USEFUL:          0  USELESS:          0
DTLB USEFUL LOAD PREFETCHES:          0 PREFETCH ISSUED TO LOWER LEVEL:          0  ACCURACY: -nan
DTLB TIMELY PREFETCHES:          0 LATE PREFETCHES: 0 DROPPED PREFETCHES: 0
DTLB PREFETCHES SAME FILL-ORIGIN LEVEL: 0 DIFFERENT FILL-ORIGIN LEVEL: 0
DTLB AVERAGE MISS LATENCY: 9.79017 cycles
DTLB RQ	ACCESS:   15651553	FORWARD:          0	MERGED:    4847675	TO_CACHE:   10803878

STLB TOTAL     ACCESS:     595312  HIT:     594063  MISS:       1249  HIT %:    99.7902  MISS %:   0.209806   MPKI: 0.02498
STLB LOAD TRANSLATION ACCESS:     226466  HIT:     225286  MISS:       1180  HIT %:     99.479  MISS %:    0.52105   MPKI: 0.0236
STLB TRANSLATION FROM L1D PREFETCHER ACCESS:     368846  HIT:     368777  MISS:         69  HIT %:    99.9813  MISS %:   0.018707   MPKI: 0.00138
STLB PREFETCH  REQUESTED:          0  ISSUED:          0  USEFUL:         59  USELESS:          3
STLB USEFUL LOAD PREFETCHES:         59 PREFETCH ISSUED TO LOWER LEVEL:          0  ACCURACY: inf
STLB TIMELY PREFETCHES:         59 LATE PREFETCHES: 0 DROPPED PREFETCHES: 29
STLB PREFETCHES SAME FILL-ORIGIN LEVEL: 0 DIFFERENT FILL-ORIGIN LEVEL: 0
STLB AVERAGE MISS LATENCY: 145.478 cycles
STLB RQ	ACCESS:     595341	FORWARD:          0	MERGED:          0	TO_CACHE:     595341

STLB Hit, L1D data hit: 0
STLB Hit, L2C data hit: 0
STLB Hit, LLC data hit: 0
STLB Hit, LLC data miss: 0
STLB STLB hints to L2: 0
L1D TOTAL     ACCESS:   15592687  HIT:   15531217  MISS:      61470  HIT %:    99.6058  MISS %:   0.394223   MPKI: 1.2294
L1D LOAD      ACCESS:    7132028  HIT:    7102806  MISS:      29222  HIT %:    99.5903  MISS %:   0.409729   MPKI: 0.58444
L1D RFO       ACCESS:    8460659  HIT:    8428411  MISS:      32248  HIT %:    99.6188  MISS %:   0.381152   MPKI: 0.64496
L1D PREFETCH  REQUESTED:          0  ISSUED:          0  USEFUL:          0  USELESS:          0
L1D USEFUL LOAD PREFETCHES:          0 PREFETCH ISSUED TO LOWER LEVEL:          0  ACCURACY: -nan
L1D TIMELY PREFETCHES:          0 LATE PREFETCHES: 0 DROPPED PREFETCHES: 0
L1D PREFETCHES SAME FILL-ORIGIN LEVEL: 0 DIFFERENT FILL-ORIGIN LEVEL: 0
L1D AVERAGE MISS LATENCY: 231.8 cycles
L1D RQ	ACCESS:   11277191	FORWARD:          0	MERGED:    3978347	TO_CACHE:    7138001
L1D WQ	ACCESS:    8638567	FORWARD:     160843	MERGED:     125015	TO_CACHE:    8513552

L1D UNIQUE REGIONS ACCESSED: 0
L1D REGIONS CONFLICTS: 0
L1D Cross Page Prefetch Requests: 0
L1D Same Page Prefetch Requests: 0
L1D ROI Sum of L1D PQ occupancy: 0
L1D PREFETCHES PUSHED FROM L2C: 0
L1I TOTAL     ACCESS:   15201547  HIT:   13132343  MISS:    2069204  HIT %:    86.3882  MISS %:    13.6118   MPKI: 41.3841
L1I LOAD      ACCESS:    9528204  HIT:    9487937  MISS:      40267  HIT %:    99.5774  MISS %:   0.422608   MPKI: 0.80534
L1I PREFETCH  ACCESS:    5673343  HIT:    3644406  MISS:    2028937  HIT %:    64.2374  MISS %:    35.7626   MPKI: 40.5787
L1I PREFETCH  REQUESTED:    5958462  ISSUED:    5958347  USEFUL:    1767533  USELESS:     261409
L1I USEFUL LOAD PREFETCHES:    1767533 PREFETCH ISSUED TO LOWER LEVEL:    2037838  ACCURACY: 86.7357
L1I TIMELY PREFETCHES:    1767533 LATE PREFETCHES: 8901 DROPPED PREFETCHES: 35
L1I PREFETCHES SAME FILL-ORIGIN LEVEL: 2037838 DIFFERENT FILL-ORIGIN LEVEL: 0
L1I AVERAGE MISS LATENCY: 170875 cycles
L1I RQ	ACCESS:   13767814	FORWARD:          0	MERGED:    4231548	TO_CACHE:    9536266
L1I PQ	ACCESS:    5958347	FORWARD:          0	MERGED:     234284	TO_CACHE:    5724063

BTB TOTAL     ACCESS:    5705846  HIT:    5254646  MISS:     451200  HIT %:    92.0923  MISS %:    7.90768   MPKI: 9.024
BTB BRANCH_DIRECT_JUMP	ACCESS:     449415  HIT:     448069  MISS:       1346
BTB BRANCH_INDIRECT	ACCESS:       2330  HIT:       2200  MISS:        130
BTB BRANCH_CONDITIONAL	ACCESS:    2664995  HIT:    2660208  MISS:       4787
BTB BRANCH_DIRECT_CALL	ACCESS:    1172178  HIT:    1168562  MISS:       3616
BTB BRANCH_INDIRECT_CALL	ACCESS:     122383  HIT:     109013  MISS:      13370
BTB BRANCH_RETURN	ACCESS:    1294545  HIT:     866594  MISS:     427951
BTB BRANCH_OTHER ACCESS:          0  HIT:          0  MISS:          0

L2C TOTAL     ACCESS:    2784751  HIT:    2713955  MISS:      70796  HIT %:    97.4577  MISS %:    2.54227   MPKI: 1.41592
L2C LOAD      ACCESS:      60588  HIT:      32776  MISS:      27812  HIT %:    54.0965  MISS %:    45.9035   MPKI: 0.55624
L2C DATA LOAD MPKI: 0.4728
L2C INSTRUCTION LOAD MPKI: 0.08344
L2C RFO       ACCESS:      32248  HIT:       1082  MISS:      31166  HIT %:    3.35525  MISS %:    96.6448   MPKI: 0.62332
L2C PREFETCH  ACCESS:    2652616  HIT:    2642754  MISS:       9862  HIT %:    99.6282  MISS %:   0.371784   MPKI: 0.19724
L2C DATA PREFETCH MPKI: 0.01054
L2C INSTRUCTION PREFETCH MPKI: 0.1867
L2C WRITEBACK ACCESS:      37837  HIT:      36587  MISS:       1250  HIT %:    96.6964  MISS %:    3.30364   MPKI: 0.025
L2C LOAD TRANSLATION ACCESS:       1347  HIT:        690  MISS:        657  HIT %:    51.2249  MISS %:    48.7751   MPKI: 0.01314
L2C TRANSLATION FROM L1D PREFETCHER ACCESS:        115  HIT:         66  MISS:         49  HIT %:    57.3913  MISS %:    42.6087   MPKI: 0.00098
L2C PREFETCH  REQUESTED:    1519454  ISSUED:    1519453  USEFUL:        866  USELESS:       8913
L2C USEFUL LOAD PREFETCHES:        866 PREFETCH ISSUED TO LOWER LEVEL:     309461  ACCURACY: 0.279841
L2C TIMELY PREFETCHES:        866 LATE PREFETCHES: 1 DROPPED PREFETCHES: 0
L2C PREFETCHES SAME FILL-ORIGIN LEVEL: 540 DIFFERENT FILL-ORIGIN LEVEL: 299598
L2C AVERAGE MISS LATENCY: 209.093 cycles
L2C RQ	ACCESS:      94298	FORWARD:          0	MERGED:          0	TO_CACHE:      94298
L2C WQ	ACCESS:      37837	FORWARD:          0	MERGED:          0	TO_CACHE:      37837
L2C PQ	ACCESS:    3557291	FORWARD:          0	MERGED:     604934	TO_CACHE:    2952357

L2C Instructions Evicting Data 11113
L2C Translations Evicting Data 569
L2C Data Evicting Data 44074
L2C Instructions Evicting Instructions 2253
L2C Translations Evicting Instructions 131
L2C Data Evicting Instructions 10723
L2C Instructions Evicting Translations 141
L2C Translations Evicting Translations 6
L2C Data Evicting Translations 536
L2C Dense regions hint from L2: 0
PSCL5 TOTAL     ACCESS:       1278  HIT:       1278  MISS:          0  HIT %:        100  MISS %:          0   MPKI: 0
PSCL5 LOAD TRANSLATION ACCESS:       1180  HIT:       1180  MISS:          0  HIT %:        100  MISS %:          0   MPKI: 0
PSCL5 TRANSLATION FROM L1D PREFETCHER ACCESS:         98  HIT:         98  MISS:          0  HIT %:        100  MISS %:          0   MPKI: 0
PSCL5 PREFETCH  REQUESTED:          0  ISSUED:          0  USEFUL:          0  USELESS:          0
PSCL5 USEFUL LOAD PREFETCHES:          0 PREFETCH ISSUED TO LOWER LEVEL:          0  ACCURACY: -nan
PSCL5 TIMELY PREFETCHES:          0 LATE PREFETCHES: 0 DROPPED PREFETCHES: 0
PSCL5 PREFETCHES SAME FILL-ORIGIN LEVEL: 0 DIFFERENT FILL-ORIGIN LEVEL: 0

PSCL4 TOTAL     ACCESS:       1020  HIT:       1010  MISS:         10  HIT %:    99.0196  MISS %:   0.980392   MPKI: 0.0002
PSCL4 LOAD TRANSLATION ACCESS:        937  HIT:        927  MISS:         10  HIT %:    98.9328  MISS %:    1.06724   MPKI: 0.0002
PSCL4 TRANSLATION FROM L1D PREFETCHER ACCESS:         83  HIT:         83  MISS:          0  HIT %:        100  MISS %:          0   MPKI: 0
PSCL4 PREFETCH  REQUESTED:          0  ISSUED:          0  USEFUL:          0  USELESS:          0
PSCL4 USEFUL LOAD PREFETCHES:          0 PREFETCH ISSUED TO LOWER LEVEL:          0  ACCURACY: -nan
PSCL4 TIMELY PREFETCHES:          0 LATE PREFETCHES: 0 DROPPED PREFETCHES: 0
PSCL4 PREFETCHES SAME FILL-ORIGIN LEVEL: 0 DIFFERENT FILL-ORIGIN LEVEL: 0

PSCL3 TOTAL     ACCESS:       1196  HIT:       1186  MISS:         10  HIT %:    99.1639  MISS %:    0.83612   MPKI: 0.0002
PSCL3 LOAD TRANSLATION ACCESS:       1113  HIT:       1103  MISS:         10  HIT %:    99.1015  MISS %:   0.898473   MPKI: 0.0002
PSCL3 TRANSLATION FROM L1D PREFETCHER ACCESS:         83  HIT:         83  MISS:          0  HIT %:        100  MISS %:          0   MPKI: 0
PSCL3 PREFETCH  REQUESTED:          0  ISSUED:          0  USEFUL:          0  USELESS:          0
PSCL3 USEFUL LOAD PREFETCHES:          0 PREFETCH ISSUED TO LOWER LEVEL:          0  ACCURACY: -nan
PSCL3 TIMELY PREFETCHES:          0 LATE PREFETCHES: 0 DROPPED PREFETCHES: 0
PSCL3 PREFETCHES SAME FILL-ORIGIN LEVEL: 0 DIFFERENT FILL-ORIGIN LEVEL: 0

PSCL2 TOTAL     ACCESS:       1273  HIT:       1122  MISS:        151  HIT %:    88.1383  MISS %:    11.8617   MPKI: 0.00302
PSCL2 LOAD TRANSLATION ACCESS:       1184  HIT:       1033  MISS:        151  HIT %:    87.2466  MISS %:    12.7534   MPKI: 0.00302
PSCL2 TRANSLATION FROM L1D PREFETCHER ACCESS:         89  HIT:         89  MISS:          0  HIT %:        100  MISS %:          0   MPKI: 0
PSCL2 PREFETCH  REQUESTED:          0  ISSUED:          0  USEFUL:          0  USELESS:          0
PSCL2 USEFUL LOAD PREFETCHES:          0 PREFETCH ISSUED TO LOWER LEVEL:          0  ACCURACY: -nan
PSCL2 TIMELY PREFETCHES:          0 LATE PREFETCHES: 0 DROPPED PREFETCHES: 0
PSCL2 PREFETCHES SAME FILL-ORIGIN LEVEL: 0 DIFFERENT FILL-ORIGIN LEVEL: 0

LLC TOTAL     ACCESS:     402276  HIT:     350329  MISS:      51947  HIT %:    87.0867  MISS %:    12.9133   MPKI: 1.03894
LLC LOAD      ACCESS:      27811  HIT:       7945  MISS:      19866  HIT %:    28.5678  MISS %:    71.4322   MPKI: 0.39732
LLC RFO       ACCESS:      31166  HIT:       6366  MISS:      24800  HIT %:    20.4261  MISS %:    79.5739   MPKI: 0.496
LLC PREFETCH  ACCESS:     308192  HIT:     302263  MISS:       5929  HIT %:    98.0762  MISS %:     1.9238   MPKI: 0.11858
LLC WRITEBACK ACCESS:      34401  HIT:      33544  MISS:        857  HIT %:    97.5088  MISS %:    2.49121   MPKI: 0.01714
LLC LOAD TRANSLATION ACCESS:        657  HIT:        186  MISS:        471  HIT %:    28.3105  MISS %:    71.6895   MPKI: 0.00942
LLC TRANSLATION FROM L1D PREFETCHER ACCESS:         49  HIT:         25  MISS:         24  HIT %:    51.0204  MISS %:    48.9796   MPKI: 0.00048
LLC PREFETCH  REQUESTED:          0  ISSUED:          0  USEFUL:        412  USELESS:       6088
LLC USEFUL LOAD PREFETCHES:        412 PREFETCH ISSUED TO LOWER LEVEL:       5940  ACCURACY: 6.93603
LLC TIMELY PREFETCHES:        412 LATE PREFETCHES: 11 DROPPED PREFETCHES: 0
LLC PREFETCHES SAME FILL-ORIGIN LEVEL: 2513 DIFFERENT FILL-ORIGIN LEVEL: 0
LLC AVERAGE MISS LATENCY: 252.983 cycles
LLC RQ	ACCESS:      59683	FORWARD:          0	MERGED:          0	TO_CACHE:      59683
LLC WQ	ACCESS:      34401	FORWARD:          0	MERGED:          0	TO_CACHE:      34401
LLC PQ	ACCESS:     309461	FORWARD:          0	MERGED:       1186	TO_CACHE:     308275

LLC Dense regions hint to LLC: 0

RAW hits: 1535204
Loads Generated: 12812392
Loads sent to L1D: 11277191
Stores Generated: 8638565
Stores sent to L1D: 8638567
Major fault: 0 Minor fault: 2022
Allocated PAGES: 2022
I-Shadow cache 408 bytes
Touched + WorthPF tables 6144 bytes 
MMA filter 174 bytes 
FNL filter 272 bytes 
TOTAL PREFETCHER STORAGE SIZE: 25174 bytes
CPU 0 L1I next line prefetcher final stats
 All Calls: 4065138
 Critical Calls: 3884487
------------------
Depth Distribution
------------------
depth 0: 0
depth 1: 1634155
depth 2: 883126
depth 3: 400604
depth 4: 142408
depth 5: 31884
depth 6: 8247
depth 7: 622
depth 8: 473
depth 9: 12
depth 10: 11
depth 11: 0
depth 12: 0
depth 13: 0
depth 14: 0
depth 15: 0
depth 16: 0
depth 17: 0
depth 18: 0
depth 19: 0
depth 20: 0
depth 21: 0
depth 22: 0
depth 23: 0
depth 24: 0
depth 25: 0
depth 26: 0
depth 27: 0
depth 28: 0
depth 29: 0
Total: 3101542
-----------------------------
-----------------------------
	Captured at Filter
-----------------------------
depth 0: 0
depth 1: 2857983
depth 2: 1910990
depth 3: 1196715
depth 4: 643861
depth 5: 259295
depth 6: 74994
depth 7: 22794
depth 8: 4574
depth 9: 610
depth 10: 109
depth 11: 17
depth 12: 2
depth 13: 0
depth 14: 0
depth 15: 0
depth 16: 0
depth 17: 0
depth 18: 0
depth 19: 0
depth 20: 0
depth 21: 0
depth 22: 0
depth 23: 0
depth 24: 0
depth 25: 0
depth 26: 0
depth 27: 0
depth 28: 0
depth 29: 0
-----------------------------
-----------------------------
		Lost at Page
-----------------------------
depth 0: 0
depth 1: 444690
depth 2: 345969
depth 3: 159037
depth 4: 42320
depth 5: 6431
depth 6: 719
depth 7: 34
depth 8: 1
depth 9: 0
depth 10: 0
depth 11: 0
depth 12: 0
depth 13: 0
depth 14: 0
depth 15: 0
depth 16: 0
depth 17: 0
depth 18: 0
depth 19: 0
depth 20: 0
depth 21: 0
depth 22: 0
depth 23: 0
depth 24: 0
depth 25: 0
depth 26: 0
depth 27: 0
depth 28: 0
depth 29: 0
-----------------------------
-----------------------------
	Lost due to PQ Size
-----------------------------
176
-----------------------------
ST read accesses: 1914572
ST write accesses: 556
PT read accesses: 34922576
PT write accesses: 2719119
FILTER read accesses: 6900680
FILTER write accesses: 154168
GHR read accesses: 3209095
GHR write accesses: 460468
GHR counter read accesses: 30109872
GHR counter write accesses: 1999335
ST tag read accesses: 733607798
ST tag write accesses: 33228316

DRAM Statistics
 CHANNEL 0
 RQ ROW_BUFFER_HIT:      20627  ROW_BUFFER_MISS:      30462
 DBUS_CONGESTED:          8
 WQ ROW_BUFFER_HIT:       5961  ROW_BUFFER_MISS:      21518  FULL:          0

 AVG_CONGESTED_CYCLE: 5
 All warmup complete: 2
Channel 0 Bank busy for read cycles: 0
Channel 0 Bank busy for write cycles: 0
Channel 0
Rank 0
0banks busy for read cycles: 64806568
0banks busy for write cycles: 2274
1banks busy for read cycles: 755295
1banks busy for write cycles: 316644
2banks busy for read cycles: 346351
2banks busy for write cycles: 184287
3banks busy for read cycles: 145008
3banks busy for write cycles: 93771
4banks busy for read cycles: 87719
4banks busy for write cycles: 62272
5banks busy for read cycles: 76822
5banks busy for write cycles: 45869
6banks busy for read cycles: 81328
6banks busy for write cycles: 38251
7banks busy for read cycles: 96750
7banks busy for write cycles: 77310
8banks busy for read cycles: 244194
8banks busy for write cycles: 384880

CPU 0 Branch Prediction Accuracy: 99.7719% MPKI: 0.38824 Average ROB Occupancy at Mispredict: 48.191
Branch types
NOT_BRANCH: 41488827 82.9776%
BRANCH_DIRECT_JUMP: 449415 0.89883%
BRANCH_INDIRECT: 2330 0.00466%
BRANCH_CONDITIONAL: 5470003 10.94%
BRANCH_DIRECT_CALL: 1172178 2.34436%
BRANCH_INDIRECT_CALL: 122383 0.244766%
BRANCH_RETURN: 1294545 2.58909%
BRANCH_OTHER: 0 0%

DRAM PAGES: 1048576
Allocated PAGES: 2022
