Initialize SIGNATURE TABLE
ST_SET: 1
ST_WAY: 256
ST_TAG_BIT: 16
ST_TAG_MASK: ffff

Initialize PATTERN TABLE
PT_SET: 512
PT_WAY: 4
SIG_DELTA_BIT: 7
C_SIG_BIT: 4
C_DELTA_BIT: 4

Initialize PREFETCH FILTER
FILTER_SET: 1024

Initialize PERCEPTRON
PERC_ENTRIES: 4096
PERC_FEATURES: 9

*** ChampSim Multicore Out-of-Order Simulator ***

Warmup Instructions: 50000000
Simulation Instructions: 50000000
Number of CPUs: 1
LLC sets: 2048
LLC ways: 16
Off-chip DRAM Size: 4096 MB Channels: 1 Width: 64-bit Data Rate: 6400 MT/s
CPU 0 runs ../IPC-traces//server_009.champsimtrace.xz
.xz
NUM_OF_IPS_IN_CRITICAL_IP_TRAINING: 64
NUM_OF_CRITICAL_IP_TRAINING_TABLE_WAYS: 2
NUM_OF_CRITICAL_IP_TRAINING_TABLE_SETS: 32
WOBBLY_CRITICAL_IP_CACHE_SETS: 32
WOBBLY_CRITICAL_IP_CACHE_WAYS: 4
BTB has LRU replacement policy
ITLB has LRU replacement policy
DTLB has LRU replacement policy
STLB has LRU replacement policy
CPU 0 L1I next line prefetcher
L1I has LRU replacement policy
L1D has LRU replacement policy
Initialize SRRIP state for L2C
Initialize DRRIP state for LLC
Heartbeat CPU 0 instructions: 10000001 cycles: 2764087 heartbeat IPC: 3.61783 cumulative IPC: 3.61783 (Simulation time: 0 hr 3 min 16 sec) 
Heartbeat CPU 0 instructions: 20000002 cycles: 5520809 heartbeat IPC: 3.6275 cumulative IPC: 3.62266 (Simulation time: 0 hr 5 min 55 sec) 
Heartbeat CPU 0 instructions: 30000002 cycles: 8279973 heartbeat IPC: 3.62429 cumulative IPC: 3.6232 (Simulation time: 0 hr 8 min 22 sec) 
Heartbeat CPU 0 instructions: 40000003 cycles: 11041289 heartbeat IPC: 3.62146 cumulative IPC: 3.62277 (Simulation time: 0 hr 10 min 29 sec) 
Heartbeat CPU 0 instructions: 50000003 cycles: 13825860 heartbeat IPC: 3.59122 cumulative IPC: 3.61641 (Simulation time: 0 hr 12 min 33 sec) 

Warmup complete CPU 0 instructions: 50000003 cycles: 13825860 (Simulation time: 0 hr 12 min 33 sec) 

% increase in all ip prefetch 405.118
% increase in all ip prefetch 0.157426
Heartbeat CPU 0 instructions: 60000001 cycles: 36479304 heartbeat IPC: 0.441434 cumulative IPC: 0.441434 (Simulation time: 0 hr 15 min 59 sec) 
Heartbeat CPU 0 instructions: 70000001 cycles: 64297299 heartbeat IPC: 0.35948 cumulative IPC: 0.396264 (Simulation time: 0 hr 19 min 42 sec) 
Heartbeat CPU 0 instructions: 80000000 cycles: 78378680 heartbeat IPC: 0.710158 cumulative IPC: 0.464736 (Simulation time: 0 hr 22 min 8 sec) 
Heartbeat CPU 0 instructions: 90000001 cycles: 92652003 heartbeat IPC: 0.700608 cumulative IPC: 0.507446 (Simulation time: 0 hr 24 min 30 sec) 
Heartbeat CPU 0 instructions: 100000003 cycles: 106721040 heartbeat IPC: 0.710781 cumulative IPC: 0.538241 (Simulation time: 0 hr 26 min 58 sec) 
Finished CPU 0 instructions: 50000000 cycles: 92895180 cumulative IPC: 0.538241 (Simulation time: 0 hr 26 min 58 sec) 

ChampSim completed all CPUs

Region of Interest Statistics

CPU 0 cumulative IPC: 0.538241 instructions: 50000000 cycles: 92895180

CPU 0 Average Load ROB stall cycles: 2.99189e+07
CPU 0 Fraction of times ROB stalled by Loads: 52.2029
CPU 0 Percentage of Load stall cycles in Total stall cycles: 2.89968e+08
Issued all: 35659225
Issued LT all: 30112982
rob_not_full_when_issued_lt_all: 21747447
Issued LT one: 24257804
rob_not_full_when_issued_lt_one: 16446630
 Total stall cycles: 78999348
 Total load stall cycles: 229072975388116
CPU 0 NUM of IPS identified critical: 0
CPU 0 Num of Load IPs stalling ROB: 24684
Threshold modification factor: -1
Max PIST entries: 64
Min PIST entries: 0
Avg PIST entries: 31.65
Trouble in retire width: 0.945622
MaC = Marked as critical.
lt_50_percent_before_Mac: 0
gt_90_percent_before_Mac: 0
gt_75_percent_before_Mac: 0
gt_50_percent_before_Mac: 0
stall_proportion_bin_same_before_after: 0
stall_proportion_bin_lower_before_after: 0
stall_proportion_bin_upper_before_after: 0
average_stall_proportion_before: -nan
average_stall_proportion_after: -nan
Critical IP stalls, total frequency: 0
Non-critical IP stalls, total frequency: 3996893
Total Freq all stalling IPs: 3996893
stat_90_percent_critical_ip_stalls_freq: 3597230
stat_90_percent_non_critical_ip_stalls_freq: 399663
Critical_IP_ROB_Stalls_Bucket_0: 0
Non-critical_IP_ROB_Stalls_Bucket_0: 1166291
Critical_IP_ROB_Stalls_Bucket_1: 0
Non-critical_IP_ROB_Stalls_Bucket_1: 811573
Critical_IP_ROB_Stalls_Bucket_2: 0
Non-critical_IP_ROB_Stalls_Bucket_2: 446101
Critical_IP_ROB_Stalls_Bucket_3: 0
Non-critical_IP_ROB_Stalls_Bucket_3: 333750
Critical_IP_ROB_Stalls_Bucket_4: 0
Non-critical_IP_ROB_Stalls_Bucket_4: 280153
Critical_IP_ROB_Stalls_Bucket_5: 0
Non-critical_IP_ROB_Stalls_Bucket_5: 279616
Critical_IP_ROB_Stalls_Bucket_6: 0
Non-critical_IP_ROB_Stalls_Bucket_6: 679409
0 => IPs accounting for >50 percent of stalls, 1 => 55, 2 => 60, 3 => 65 and so on till 90.
percent50: 50.1259 num IPs:  30
percent55: 55.0343 num IPs: 51
percent60: 60.0112 num IPs: 75
percent65: 65.0634 num IPs: 112
percent70: 70.0354 num IPs: 195
percent75: 75.0069 num IPs: 390
percent80: 80.0105 num IPs: 722
percent85: 85.0024 num IPs: 1333
percent90: 90.0009 num IPs: 2774
Critical_ROB_Stalls_Percent_0_Bucket_0: 173880
Non-critical_ROB_Stalls_Percent_0_Bucket_0: 992411
Critical_ROB_Stalls_Percent_0_Bucket_1: 186877
Non-critical_ROB_Stalls_Percent_0_Bucket_1: 624696
Critical_ROB_Stalls_Percent_0_Bucket_2: 241645
Non-critical_ROB_Stalls_Percent_0_Bucket_2: 204456
Critical_ROB_Stalls_Percent_0_Bucket_3: 260501
Non-critical_ROB_Stalls_Percent_0_Bucket_3: 73249
Critical_ROB_Stalls_Percent_0_Bucket_4: 241991
Non-critical_ROB_Stalls_Percent_0_Bucket_4: 38162
Critical_ROB_Stalls_Percent_0_Bucket_5: 256412
Non-critical_ROB_Stalls_Percent_0_Bucket_5: 23204
Critical_ROB_Stalls_Percent_0_Bucket_6: 642173
Non-critical_ROB_Stalls_Percent_0_Bucket_6: 37236
Critical_ROB_Stalls_Percent_1_Bucket_0: 280426
Non-critical_ROB_Stalls_Percent_1_Bucket_0: 885865
Critical_ROB_Stalls_Percent_1_Bucket_1: 272424
Non-critical_ROB_Stalls_Percent_1_Bucket_1: 539149
Critical_ROB_Stalls_Percent_1_Bucket_2: 245652
Non-critical_ROB_Stalls_Percent_1_Bucket_2: 200449
Critical_ROB_Stalls_Percent_1_Bucket_3: 260557
Non-critical_ROB_Stalls_Percent_1_Bucket_3: 73193
Critical_ROB_Stalls_Percent_1_Bucket_4: 242008
Non-critical_ROB_Stalls_Percent_1_Bucket_4: 38145
Critical_ROB_Stalls_Percent_1_Bucket_5: 256421
Non-critical_ROB_Stalls_Percent_1_Bucket_5: 23195
Critical_ROB_Stalls_Percent_1_Bucket_6: 642173
Non-critical_ROB_Stalls_Percent_1_Bucket_6: 37236
Critical_ROB_Stalls_Percent_2_Bucket_0: 385076
Non-critical_ROB_Stalls_Percent_2_Bucket_0: 781215
Critical_ROB_Stalls_Percent_2_Bucket_1: 331999
Non-critical_ROB_Stalls_Percent_2_Bucket_1: 479574
Critical_ROB_Stalls_Percent_2_Bucket_2: 272928
Non-critical_ROB_Stalls_Percent_2_Bucket_2: 173173
Critical_ROB_Stalls_Percent_2_Bucket_3: 262351
Non-critical_ROB_Stalls_Percent_2_Bucket_3: 71399
Critical_ROB_Stalls_Percent_2_Bucket_4: 243281
Non-critical_ROB_Stalls_Percent_2_Bucket_4: 36872
Critical_ROB_Stalls_Percent_2_Bucket_5: 257546
Non-critical_ROB_Stalls_Percent_2_Bucket_5: 22070
Critical_ROB_Stalls_Percent_2_Bucket_6: 645402
Non-critical_ROB_Stalls_Percent_2_Bucket_6: 34007
Critical_ROB_Stalls_Percent_3_Bucket_0: 453859
Non-critical_ROB_Stalls_Percent_3_Bucket_0: 712432
Critical_ROB_Stalls_Percent_3_Bucket_1: 426696
Non-critical_ROB_Stalls_Percent_3_Bucket_1: 384877
Critical_ROB_Stalls_Percent_3_Bucket_2: 297794
Non-critical_ROB_Stalls_Percent_3_Bucket_2: 148307
Critical_ROB_Stalls_Percent_3_Bucket_3: 269430
Non-critical_ROB_Stalls_Percent_3_Bucket_3: 64320
Critical_ROB_Stalls_Percent_3_Bucket_4: 245867
Non-critical_ROB_Stalls_Percent_3_Bucket_4: 34286
Critical_ROB_Stalls_Percent_3_Bucket_5: 259013
Non-critical_ROB_Stalls_Percent_3_Bucket_5: 20603
Critical_ROB_Stalls_Percent_3_Bucket_6: 647854
Non-critical_ROB_Stalls_Percent_3_Bucket_6: 31555
Critical_ROB_Stalls_Percent_4_Bucket_0: 532336
Non-critical_ROB_Stalls_Percent_4_Bucket_0: 633955
Critical_ROB_Stalls_Percent_4_Bucket_1: 496209
Non-critical_ROB_Stalls_Percent_4_Bucket_1: 315364
Critical_ROB_Stalls_Percent_4_Bucket_2: 325546
Non-critical_ROB_Stalls_Percent_4_Bucket_2: 120555
Critical_ROB_Stalls_Percent_4_Bucket_3: 278505
Non-critical_ROB_Stalls_Percent_4_Bucket_3: 55245
Critical_ROB_Stalls_Percent_4_Bucket_4: 251023
Non-critical_ROB_Stalls_Percent_4_Bucket_4: 29130
Critical_ROB_Stalls_Percent_4_Bucket_5: 261111
Non-critical_ROB_Stalls_Percent_4_Bucket_5: 18505
Critical_ROB_Stalls_Percent_4_Bucket_6: 654511
Non-critical_ROB_Stalls_Percent_4_Bucket_6: 24898
Critical_ROB_Stalls_Percent_5_Bucket_0: 615202
Non-critical_ROB_Stalls_Percent_5_Bucket_0: 551089
Critical_ROB_Stalls_Percent_5_Bucket_1: 559622
Non-critical_ROB_Stalls_Percent_5_Bucket_1: 251951
Critical_ROB_Stalls_Percent_5_Bucket_2: 352852
Non-critical_ROB_Stalls_Percent_5_Bucket_2: 93249
Critical_ROB_Stalls_Percent_5_Bucket_3: 290471
Non-critical_ROB_Stalls_Percent_5_Bucket_3: 43279
Critical_ROB_Stalls_Percent_5_Bucket_4: 255931
Non-critical_ROB_Stalls_Percent_5_Bucket_4: 24222
Critical_ROB_Stalls_Percent_5_Bucket_5: 264857
Non-critical_ROB_Stalls_Percent_5_Bucket_5: 14759
Critical_ROB_Stalls_Percent_5_Bucket_6: 659011
Non-critical_ROB_Stalls_Percent_5_Bucket_6: 20398
Critical_ROB_Stalls_Percent_6_Bucket_0: 702019
Non-critical_ROB_Stalls_Percent_6_Bucket_0: 464272
Critical_ROB_Stalls_Percent_6_Bucket_1: 630075
Non-critical_ROB_Stalls_Percent_6_Bucket_1: 181498
Critical_ROB_Stalls_Percent_6_Bucket_2: 372691
Non-critical_ROB_Stalls_Percent_6_Bucket_2: 73410
Critical_ROB_Stalls_Percent_6_Bucket_3: 298359
Non-critical_ROB_Stalls_Percent_6_Bucket_3: 35391
Critical_ROB_Stalls_Percent_6_Bucket_4: 261999
Non-critical_ROB_Stalls_Percent_6_Bucket_4: 18154
Critical_ROB_Stalls_Percent_6_Bucket_5: 269116
Non-critical_ROB_Stalls_Percent_6_Bucket_5: 10500
Critical_ROB_Stalls_Percent_6_Bucket_6: 663672
Non-critical_ROB_Stalls_Percent_6_Bucket_6: 15737
Critical_ROB_Stalls_Percent_7_Bucket_0: 812000
Non-critical_ROB_Stalls_Percent_7_Bucket_0: 354291
Critical_ROB_Stalls_Percent_7_Bucket_1: 684202
Non-critical_ROB_Stalls_Percent_7_Bucket_1: 127371
Critical_ROB_Stalls_Percent_7_Bucket_2: 390067
Non-critical_ROB_Stalls_Percent_7_Bucket_2: 56034
Critical_ROB_Stalls_Percent_7_Bucket_3: 306363
Non-critical_ROB_Stalls_Percent_7_Bucket_3: 27387
Critical_ROB_Stalls_Percent_7_Bucket_4: 266074
Non-critical_ROB_Stalls_Percent_7_Bucket_4: 14079
Critical_ROB_Stalls_Percent_7_Bucket_5: 272263
Non-critical_ROB_Stalls_Percent_7_Bucket_5: 7353
Critical_ROB_Stalls_Percent_7_Bucket_6: 666486
Non-critical_ROB_Stalls_Percent_7_Bucket_6: 12923
Critical_ROB_Stalls_Percent_8_Bucket_0: 919478
Non-critical_ROB_Stalls_Percent_8_Bucket_0: 246813
Critical_ROB_Stalls_Percent_8_Bucket_1: 735043
Non-critical_ROB_Stalls_Percent_8_Bucket_1: 76530
Critical_ROB_Stalls_Percent_8_Bucket_2: 410344
Non-critical_ROB_Stalls_Percent_8_Bucket_2: 35757
Critical_ROB_Stalls_Percent_8_Bucket_3: 315760
Non-critical_ROB_Stalls_Percent_8_Bucket_3: 17990
Critical_ROB_Stalls_Percent_8_Bucket_4: 271714
Non-critical_ROB_Stalls_Percent_8_Bucket_4: 8439
Critical_ROB_Stalls_Percent_8_Bucket_5: 274788
Non-critical_ROB_Stalls_Percent_8_Bucket_5: 4828
Critical_ROB_Stalls_Percent_8_Bucket_6: 670103
Non-critical_ROB_Stalls_Percent_8_Bucket_6: 9306
Average ROB occupancy Load Stall Begin: 136.536
Average ROB occupancy Load Stall End: 144.391
Min ROB occupancy Load Stall Begin: 1
Max ROB occupancy Load Stall Begin: 352
Min ROB occupancy Load Stall End: 1
Max ROB occupancy Load Stall End: 352
Average ROB occupancy Critical Load Stall Begin: -nan
Average ROB occupancy Critical Load Stall End: -nan
Min ROB occupancy Critical Load Stall Begin: 400
Max ROB occupancy Critical Load Stall Begin: 0
Min ROB occupancy Critical Load Stall End: 400
Max ROB occupancy Critical Load Stall End: 0
 ROB Load Stall Begin Bucket Count 0: 1459628
 ROB Load Stall End Bucket Count 0: 1166291
 ROB Critical Load Stall Begin Bucket Count 0: 0
 ROB Critical Load Stall End Bucket Count 0: 0
 ROB Load Stall Begin Bucket Count 1: 632005
 ROB Load Stall End Bucket Count 1: 811573
 ROB Critical Load Stall Begin Bucket Count 1: 0
 ROB Critical Load Stall End Bucket Count 1: 0
 ROB Load Stall Begin Bucket Count 2: 392566
 ROB Load Stall End Bucket Count 2: 446101
 ROB Critical Load Stall Begin Bucket Count 2: 0
 ROB Critical Load Stall End Bucket Count 2: 0
 ROB Load Stall Begin Bucket Count 3: 305211
 ROB Load Stall End Bucket Count 3: 333750
 ROB Critical Load Stall Begin Bucket Count 3: 0
 ROB Critical Load Stall End Bucket Count 3: 0
 ROB Load Stall Begin Bucket Count 4: 275222
 ROB Load Stall End Bucket Count 4: 280153
 ROB Critical Load Stall Begin Bucket Count 4: 0
 ROB Critical Load Stall End Bucket Count 4: 0
 ROB Load Stall Begin Bucket Count 5: 269512
 ROB Load Stall End Bucket Count 5: 279616
 ROB Critical Load Stall Begin Bucket Count 5: 0
 ROB Critical Load Stall End Bucket Count 5: 0
 ROB Load Stall Begin Bucket Count 6: 662749
 ROB Load Stall End Bucket Count 6: 679409
 ROB Critical Load Stall Begin Bucket Count 6: 0
 ROB Critical Load Stall End Bucket Count 6: 0
PIST Tag Read Accesses: 2613294
PIST Read Accesses: 1306647
PIST Tag Write Accesses: 2613294
PIST Write Accesses: 1306647
Criticality detector called times: 2187214
Max global_stall_cycles_count: 3024826
Threshold Modified: 1 times, factor: -1
Sturdy critical IP cache stats: 
 Unused entries: 0
CIC Tag Read Accesses: 0
CIC Read Accesses: 0
CIC Tag Write Accesses: 0
CIC Write Accesses: 0
Wobbly critical IP cache stats: 
 Unused entries: 92
CIC Tag Read Accesses: 87162093
CIC Read Accesses: 0
CIC Tag Write Accesses: 42564
CIC Write Accesses: 0
ITLB TOTAL     ACCESS:    9888467  HIT:    9696025  MISS:     192442  HIT %:    98.0539  MISS %:    1.94613   MPKI: 3.84884
ITLB LOAD TRANSLATION ACCESS:    8864084  HIT:    8804027  MISS:      60057  HIT %:    99.3225  MISS %:   0.677532   MPKI: 1.20114
ITLB TRANSLATION FROM L1D PREFETCHER ACCESS:    1024383  HIT:     891998  MISS:     132385  HIT %:    87.0766  MISS %:    12.9234   MPKI: 2.6477
ITLB PREFETCH  REQUESTED:          0  ISSUED:          0  USEFUL:     107405  USELESS:      24972
ITLB USEFUL LOAD PREFETCHES:     107405 PREFETCH ISSUED TO LOWER LEVEL:          0  ACCURACY: inf
ITLB TIMELY PREFETCHES:     107405 LATE PREFETCHES: 684 DROPPED PREFETCHES: 9374
ITLB PREFETCHES SAME FILL-ORIGIN LEVEL: 0 DIFFERENT FILL-ORIGIN LEVEL: 0
ITLB AVERAGE MISS LATENCY: 252963 cycles
ITLB RQ	ACCESS:   13023268	FORWARD:          0	MERGED:    3099904	TO_CACHE:    9923364

DTLB TOTAL     ACCESS:   10475559  HIT:    8727648  MISS:    1747911  HIT %:    83.3144  MISS %:    16.6856   MPKI: 34.9582
DTLB LOAD TRANSLATION ACCESS:   10475559  HIT:    8727648  MISS:    1747911  HIT %:    83.3144  MISS %:    16.6856   MPKI: 34.9582
DTLB PREFETCH  REQUESTED:          0  ISSUED:          0  USEFUL:          0  USELESS:          0
DTLB USEFUL LOAD PREFETCHES:          0 PREFETCH ISSUED TO LOWER LEVEL:          0  ACCURACY: -nan
DTLB TIMELY PREFETCHES:          0 LATE PREFETCHES: 0 DROPPED PREFETCHES: 0
DTLB PREFETCHES SAME FILL-ORIGIN LEVEL: 0 DIFFERENT FILL-ORIGIN LEVEL: 0
DTLB AVERAGE MISS LATENCY: 10.8796 cycles
DTLB RQ	ACCESS:   13785129	FORWARD:          0	MERGED:    3272109	TO_CACHE:   10513020

STLB TOTAL     ACCESS:    1940351  HIT:    1843149  MISS:      97202  HIT %:    94.9905  MISS %:    5.00951   MPKI: 1.94404
STLB LOAD TRANSLATION ACCESS:    1807284  HIT:    1732282  MISS:      75002  HIT %:      95.85  MISS %:    4.14998   MPKI: 1.50004
STLB TRANSLATION FROM L1D PREFETCHER ACCESS:     133067  HIT:     110867  MISS:      22200  HIT %:    83.3167  MISS %:    16.6833   MPKI: 0.444
STLB PREFETCH  REQUESTED:          0  ISSUED:          0  USEFUL:      12633  USELESS:       9586
STLB USEFUL LOAD PREFETCHES:      12633 PREFETCH ISSUED TO LOWER LEVEL:          0  ACCURACY: inf
STLB TIMELY PREFETCHES:      12633 LATE PREFETCHES: 1 DROPPED PREFETCHES: 9374
STLB PREFETCHES SAME FILL-ORIGIN LEVEL: 0 DIFFERENT FILL-ORIGIN LEVEL: 0
STLB AVERAGE MISS LATENCY: 47.3863 cycles
STLB RQ	ACCESS:    1949727	FORWARD:          0	MERGED:          1	TO_CACHE:    1949726

STLB Hit, L1D data hit: 0
STLB Hit, L2C data hit: 0
STLB Hit, LLC data hit: 0
STLB Hit, LLC data miss: 0
STLB STLB hints to L2: 0
L1D TOTAL     ACCESS:   13651786  HIT:   11362533  MISS:    2289253  HIT %:    83.2311  MISS %:    16.7689   MPKI: 45.7851
L1D LOAD      ACCESS:    9017208  HIT:    6821036  MISS:    2196172  HIT %:    75.6447  MISS %:    24.3553   MPKI: 43.9234
L1D RFO       ACCESS:    4634578  HIT:    4541497  MISS:      93081  HIT %:    97.9916  MISS %:     2.0084   MPKI: 1.86162
L1D PREFETCH  REQUESTED:          0  ISSUED:          0  USEFUL:          0  USELESS:          0
L1D USEFUL LOAD PREFETCHES:          0 PREFETCH ISSUED TO LOWER LEVEL:          0  ACCURACY: -nan
L1D TIMELY PREFETCHES:          0 LATE PREFETCHES: 0 DROPPED PREFETCHES: 0
L1D PREFETCHES SAME FILL-ORIGIN LEVEL: 0 DIFFERENT FILL-ORIGIN LEVEL: 0
L1D AVERAGE MISS LATENCY: 22.8487 cycles
L1D RQ	ACCESS:   12389311	FORWARD:          0	MERGED:    3263493	TO_CACHE:    9049642
L1D WQ	ACCESS:    4834418	FORWARD:      76176	MERGED:      98931	TO_CACHE:    4735487

L1D UNIQUE REGIONS ACCESSED: 0
L1D REGIONS CONFLICTS: 0
L1D Cross Page Prefetch Requests: 0
L1D Same Page Prefetch Requests: 0
L1D ROI Sum of L1D PQ occupancy: 0
L1D PREFETCHES PUSHED FROM L2C: 0
L1I TOTAL     ACCESS:   12882006  HIT:   11263245  MISS:    1618761  HIT %:    87.4339  MISS %:    12.5661   MPKI: 32.3752
L1I LOAD      ACCESS:   10539920  HIT:   10324457  MISS:     215463  HIT %:    97.9557  MISS %:    2.04426   MPKI: 4.30926
L1I PREFETCH  ACCESS:    2342086  HIT:     938788  MISS:    1403298  HIT %:    40.0834  MISS %:    59.9166   MPKI: 28.066
L1I PREFETCH  REQUESTED:    2557192  ISSUED:    2550144  USEFUL:     922410  USELESS:     480862
L1I USEFUL LOAD PREFETCHES:     922410 PREFETCH ISSUED TO LOWER LEVEL:    1431271  ACCURACY: 64.4469
L1I TIMELY PREFETCHES:     922410 LATE PREFETCHES: 27956 DROPPED PREFETCHES: 29067
L1I PREFETCHES SAME FILL-ORIGIN LEVEL: 1431271 DIFFERENT FILL-ORIGIN LEVEL: 0
L1I AVERAGE MISS LATENCY: 1.23841e+06 cycles
L1I RQ	ACCESS:   15192770	FORWARD:          0	MERGED:    4631255	TO_CACHE:   10561515
L1I PQ	ACCESS:    2550144	FORWARD:          0	MERGED:      88391	TO_CACHE:    2461753

BTB TOTAL     ACCESS:    6346923  HIT:    5659258  MISS:     687665  HIT %:    89.1654  MISS %:    10.8346   MPKI: 13.7533
BTB BRANCH_DIRECT_JUMP	ACCESS:     445350  HIT:     394979  MISS:      50371
BTB BRANCH_INDIRECT	ACCESS:     131150  HIT:     103590  MISS:      27560
BTB BRANCH_CONDITIONAL	ACCESS:    3934011  HIT:    3727039  MISS:     206972
BTB BRANCH_DIRECT_CALL	ACCESS:     732485  HIT:     637543  MISS:      94942
BTB BRANCH_INDIRECT_CALL	ACCESS:     172369  HIT:     162115  MISS:      10254
BTB BRANCH_RETURN	ACCESS:     931558  HIT:     633992  MISS:     297566
BTB BRANCH_OTHER ACCESS:          0  HIT:          0  MISS:          0

L2C TOTAL     ACCESS:    4829018  HIT:    3861692  MISS:     967326  HIT %:    79.9685  MISS %:    20.0315   MPKI: 19.3465
L2C LOAD      ACCESS:    2383666  HIT:    2050864  MISS:     332802  HIT %:    86.0382  MISS %:    13.9618   MPKI: 6.65604
L2C DATA LOAD MPKI: 5.10262
L2C INSTRUCTION LOAD MPKI: 1.55342
L2C RFO       ACCESS:      93081  HIT:      53375  MISS:      39706  HIT %:    57.3425  MISS %:    42.6575   MPKI: 0.79412
L2C PREFETCH  ACCESS:    1988458  HIT:    1462385  MISS:     526073  HIT %:    73.5437  MISS %:    26.4563   MPKI: 10.5215
L2C DATA PREFETCH MPKI: 0.21848
L2C INSTRUCTION PREFETCH MPKI: 10.303
L2C WRITEBACK ACCESS:     223772  HIT:     205791  MISS:      17981  HIT %:    91.9646  MISS %:    8.03541   MPKI: 0.35962
L2C LOAD TRANSLATION ACCESS:      98446  HIT:      55908  MISS:      42538  HIT %:    56.7905  MISS %:    43.2095   MPKI: 0.85076
L2C TRANSLATION FROM L1D PREFETCHER ACCESS:      41595  HIT:      33369  MISS:       8226  HIT %:    80.2236  MISS %:    19.7764   MPKI: 0.16452
L2C PREFETCH  REQUESTED:     562570  ISSUED:     562567  USEFUL:      19218  USELESS:     514922
L2C USEFUL LOAD PREFETCHES:      19218 PREFETCH ISSUED TO LOWER LEVEL:     530088  ACCURACY: 3.62544
L2C TIMELY PREFETCHES:      19218 LATE PREFETCHES: 1003 DROPPED PREFETCHES: 0
L2C PREFETCHES SAME FILL-ORIGIN LEVEL: 11927 DIFFERENT FILL-ORIGIN LEVEL: 3012
L2C AVERAGE MISS LATENCY: 40.5053 cycles
L2C RQ	ACCESS:    2616801	FORWARD:          0	MERGED:          0	TO_CACHE:    2616788
L2C WQ	ACCESS:     223772	FORWARD:         13	MERGED:          0	TO_CACHE:     223772
L2C PQ	ACCESS:    1993821	FORWARD:          0	MERGED:        159	TO_CACHE:    1993662

L2C Instructions Evicting Data 199168
L2C Translations Evicting Data 16476
L2C Data Evicting Data 102902
L2C Instructions Evicting Instructions 362197
L2C Translations Evicting Instructions 31913
L2C Data Evicting Instructions 187022
L2C Instructions Evicting Translations 31455
L2C Translations Evicting Translations 2375
L2C Data Evicting Translations 15837
L2C Dense regions hint from L2: 0
PSCL5 TOTAL     ACCESS:     106576  HIT:     106576  MISS:          0  HIT %:        100  MISS %:          0   MPKI: 0
PSCL5 LOAD TRANSLATION ACCESS:      75001  HIT:      75001  MISS:          0  HIT %:        100  MISS %:          0   MPKI: 0
PSCL5 TRANSLATION FROM L1D PREFETCHER ACCESS:      31575  HIT:      31575  MISS:          0  HIT %:        100  MISS %:          0   MPKI: 0
PSCL5 PREFETCH  REQUESTED:          0  ISSUED:          0  USEFUL:          0  USELESS:          0
PSCL5 USEFUL LOAD PREFETCHES:          0 PREFETCH ISSUED TO LOWER LEVEL:          0  ACCURACY: -nan
PSCL5 TIMELY PREFETCHES:          0 LATE PREFETCHES: 0 DROPPED PREFETCHES: 0
PSCL5 PREFETCHES SAME FILL-ORIGIN LEVEL: 0 DIFFERENT FILL-ORIGIN LEVEL: 0

PSCL4 TOTAL     ACCESS:      97922  HIT:      97664  MISS:        258  HIT %:    99.7365  MISS %:   0.263475   MPKI: 0.00516
PSCL4 LOAD TRANSLATION ACCESS:      68888  HIT:      68630  MISS:        258  HIT %:    99.6255  MISS %:   0.374521   MPKI: 0.00516
PSCL4 TRANSLATION FROM L1D PREFETCHER ACCESS:      29034  HIT:      29034  MISS:          0  HIT %:        100  MISS %:          0   MPKI: 0
PSCL4 PREFETCH  REQUESTED:          0  ISSUED:          0  USEFUL:          0  USELESS:          0
PSCL4 USEFUL LOAD PREFETCHES:          0 PREFETCH ISSUED TO LOWER LEVEL:          0  ACCURACY: -nan
PSCL4 TIMELY PREFETCHES:          0 LATE PREFETCHES: 0 DROPPED PREFETCHES: 0
PSCL4 PREFETCHES SAME FILL-ORIGIN LEVEL: 0 DIFFERENT FILL-ORIGIN LEVEL: 0

PSCL3 TOTAL     ACCESS:     104455  HIT:     103651  MISS:        804  HIT %:    99.2303  MISS %:   0.769709   MPKI: 0.01608
PSCL3 LOAD TRANSLATION ACCESS:      74608  HIT:      73804  MISS:        804  HIT %:    98.9224  MISS %:    1.07763   MPKI: 0.01608
PSCL3 TRANSLATION FROM L1D PREFETCHER ACCESS:      29847  HIT:      29847  MISS:          0  HIT %:        100  MISS %:          0   MPKI: 0
PSCL3 PREFETCH  REQUESTED:          0  ISSUED:          0  USEFUL:          0  USELESS:          0
PSCL3 USEFUL LOAD PREFETCHES:          0 PREFETCH ISSUED TO LOWER LEVEL:          0  ACCURACY: -nan
PSCL3 TIMELY PREFETCHES:          0 LATE PREFETCHES: 0 DROPPED PREFETCHES: 0
PSCL3 PREFETCHES SAME FILL-ORIGIN LEVEL: 0 DIFFERENT FILL-ORIGIN LEVEL: 0

PSCL2 TOTAL     ACCESS:     100541  HIT:      75034  MISS:      25507  HIT %:    74.6303  MISS %:    25.3697   MPKI: 0.51014
PSCL2 LOAD TRANSLATION ACCESS:      77894  HIT:      52387  MISS:      25507  HIT %:    67.2542  MISS %:    32.7458   MPKI: 0.51014
PSCL2 TRANSLATION FROM L1D PREFETCHER ACCESS:      22647  HIT:      22647  MISS:          0  HIT %:        100  MISS %:          0   MPKI: 0
PSCL2 PREFETCH  REQUESTED:          0  ISSUED:          0  USEFUL:          0  USELESS:          0
PSCL2 USEFUL LOAD PREFETCHES:          0 PREFETCH ISSUED TO LOWER LEVEL:          0  ACCURACY: -nan
PSCL2 TIMELY PREFETCHES:          0 LATE PREFETCHES: 0 DROPPED PREFETCHES: 0
PSCL2 PREFETCHES SAME FILL-ORIGIN LEVEL: 0 DIFFERENT FILL-ORIGIN LEVEL: 0

LLC TOTAL     ACCESS:    1059761  HIT:     989244  MISS:      70517  HIT %:     93.346  MISS %:    6.65405   MPKI: 1.41034
LLC LOAD      ACCESS:     331804  HIT:     285064  MISS:      46740  HIT %:    85.9134  MISS %:    14.0866   MPKI: 0.9348
LLC RFO       ACCESS:      39700  HIT:      28960  MISS:      10740  HIT %:    72.9471  MISS %:    27.0529   MPKI: 0.2148
LLC PREFETCH  ACCESS:     530082  HIT:     519402  MISS:      10680  HIT %:    97.9852  MISS %:    2.01478   MPKI: 0.2136
LLC WRITEBACK ACCESS:     107411  HIT:     106502  MISS:        909  HIT %:    99.1537  MISS %:   0.846282   MPKI: 0.01818
LLC LOAD TRANSLATION ACCESS:      42538  HIT:      41136  MISS:       1402  HIT %:    96.7041  MISS %:    3.29588   MPKI: 0.02804
LLC TRANSLATION FROM L1D PREFETCHER ACCESS:       8226  HIT:       8180  MISS:         46  HIT %:    99.4408  MISS %:   0.559203   MPKI: 0.00092
LLC PREFETCH  REQUESTED:          0  ISSUED:          0  USEFUL:       1116  USELESS:      19034
LLC USEFUL LOAD PREFETCHES:       1116 PREFETCH ISSUED TO LOWER LEVEL:      10685  ACCURACY: 10.4445
LLC TIMELY PREFETCHES:       1116 LATE PREFETCHES: 5 DROPPED PREFETCHES: 0
LLC PREFETCHES SAME FILL-ORIGIN LEVEL: 655 DIFFERENT FILL-ORIGIN LEVEL: 0
LLC AVERAGE MISS LATENCY: 153.369 cycles
LLC RQ	ACCESS:     422269	FORWARD:          0	MERGED:          0	TO_CACHE:     422268
LLC WQ	ACCESS:     107411	FORWARD:          1	MERGED:          0	TO_CACHE:     107411
LLC PQ	ACCESS:     530088	FORWARD:          0	MERGED:          0	TO_CACHE:     530088

LLC Dense regions hint to LLC: 0

RAW hits: 986372
Loads Generated: 13375685
Loads sent to L1D: 12389311
Stores Generated: 4834417
Stores sent to L1D: 4834418
Major fault: 0 Minor fault: 6724
Allocated PAGES: 6724
I-Shadow cache 408 bytes
Touched + WorthPF tables 6144 bytes 
MMA filter 174 bytes 
FNL filter 272 bytes 
TOTAL PREFETCHER STORAGE SIZE: 25174 bytes
CPU 0 L1I next line prefetcher final stats
------------------
Depth Distribution
------------------
depth 0: 164914
depth 1: 3906479
depth 2: 287126
depth 3: 412600
depth 4: 768417
depth 5: 554721
depth 6: 0
depth 7: 0
depth 8: 0
depth 9: 0
depth 10: 0
depth 11: 0
depth 12: 0
depth 13: 0
depth 14: 0
depth 15: 0
depth 16: 0
depth 17: 0
depth 18: 0
depth 19: 0
depth 20: 0
depth 21: 0
depth 22: 0
depth 23: 0
depth 24: 0
depth 25: 0
depth 26: 0
depth 27: 0
depth 28: 0
depth 29: 0
Total: 6094257
------------------
ST read accesses: 3332504
ST write accesses: 291094
PT read accesses: 66847900
PT write accesses: 4540906
FILTER read accesses: 17461365
FILTER write accesses: 2857652
GHR read accesses: 4646752
GHR write accesses: 393348
PERC read accesses: 454112541
PERC write accesses: 2574122
GHR counter read accesses: 7247196
GHR counter write accesses: 7002557
GHR ip read accesses: 12789369
GHR ip write accesses: 14494392
ST tag read accesses: 1547784572
ST tag write accesses: 133401256

DRAM Statistics
 CHANNEL 0
 RQ ROW_BUFFER_HIT:      15153  ROW_BUFFER_MISS:      54453
 DBUS_CONGESTED:         57
 WQ ROW_BUFFER_HIT:       7497  ROW_BUFFER_MISS:      31618  FULL:          0

 AVG_CONGESTED_CYCLE: 4
 All warmup complete: 2
Channel 0 Bank busy for read cycles: 0
Channel 0 Bank busy for write cycles: 0
Channel 0
Rank 0
0banks busy for read cycles: 82275714
0banks busy for write cycles: 18884
1banks busy for read cycles: 4989466
1banks busy for write cycles: 2630682
2banks busy for read cycles: 1091479
2banks busy for write cycles: 766039
3banks busy for read cycles: 253753
3banks busy for write cycles: 246777
4banks busy for read cycles: 86819
4banks busy for write cycles: 121099
5banks busy for read cycles: 43304
5banks busy for write cycles: 82822
6banks busy for read cycles: 25136
6banks busy for write cycles: 58012
7banks busy for read cycles: 15522
7banks busy for write cycles: 62597
8banks busy for read cycles: 21656
8banks busy for write cycles: 105420

CPU 0 Branch Prediction Accuracy: 99.4713% MPKI: 1.11484 Average ROB Occupancy at Mispredict: 58.072
Branch types
NOT_BRANCH: 39456589 78.9132%
BRANCH_DIRECT_JUMP: 445350 0.8907%
BRANCH_INDIRECT: 131150 0.2623%
BRANCH_CONDITIONAL: 8130188 16.2604%
BRANCH_DIRECT_CALL: 732485 1.46497%
BRANCH_INDIRECT_CALL: 172369 0.344738%
BRANCH_RETURN: 931558 1.86312%
BRANCH_OTHER: 0 0%

DRAM PAGES: 1048576
Allocated PAGES: 6724
