
*** ChampSim Multicore Out-of-Order Simulator ***

Warmup Instructions: 50000000
Simulation Instructions: 50000000
Number of CPUs: 1
LLC sets: 2048
LLC ways: 16
Off-chip DRAM Size: 4096 MB Channels: 1 Width: 64-bit Data Rate: 6400 MT/s
CPU 0 runs ../IPC-traces//server_038.champsimtrace.xz
.xz
NUM_OF_IPS_IN_CRITICAL_IP_TRAINING: 64
NUM_OF_CRITICAL_IP_TRAINING_TABLE_WAYS: 2
NUM_OF_CRITICAL_IP_TRAINING_TABLE_SETS: 32
WOBBLY_CRITICAL_IP_CACHE_SETS: 32
WOBBLY_CRITICAL_IP_CACHE_WAYS: 4
BTB has LRU replacement policy
ITLB has LRU replacement policy
DTLB has LRU replacement policy
STLB has LRU replacement policy
CPU 0 L1I next line prefetcher
L1I has LRU replacement policy
IP Table Entries: 256
L1D has LRU replacement policy
Initialize SRRIP state for L2C
Initialize DRRIP state for LLC
Heartbeat CPU 0 instructions: 10000001 cycles: 2750375 heartbeat IPC: 3.63587 cumulative IPC: 3.63587 (Simulation time: 0 hr 4 min 5 sec) 
Heartbeat CPU 0 instructions: 20000002 cycles: 5499279 heartbeat IPC: 3.63781 cumulative IPC: 3.63684 (Simulation time: 0 hr 7 min 23 sec) 
Heartbeat CPU 0 instructions: 30000003 cycles: 8246797 heartbeat IPC: 3.63965 cumulative IPC: 3.63778 (Simulation time: 0 hr 10 min 14 sec) 
Heartbeat CPU 0 instructions: 40000001 cycles: 10995327 heartbeat IPC: 3.63831 cumulative IPC: 3.63791 (Simulation time: 0 hr 12 min 48 sec) 
Heartbeat CPU 0 instructions: 50000003 cycles: 13744507 heartbeat IPC: 3.63745 cumulative IPC: 3.63782 (Simulation time: 0 hr 15 min 20 sec) 

Warmup complete CPU 0 instructions: 50000003 cycles: 13744507 (Simulation time: 0 hr 15 min 20 sec) 

% increase in all ip prefetch 290.544
% increase in all ip prefetch -2.67567
Heartbeat CPU 0 instructions: 60000000 cycles: 25267965 heartbeat IPC: 0.867795 cumulative IPC: 0.867795 (Simulation time: 0 hr 17 min 38 sec) 
Heartbeat CPU 0 instructions: 70000001 cycles: 36703445 heartbeat IPC: 0.874471 cumulative IPC: 0.87112 (Simulation time: 0 hr 20 min 1 sec) 
Heartbeat CPU 0 instructions: 80000002 cycles: 48153127 heartbeat IPC: 0.873387 cumulative IPC: 0.871875 (Simulation time: 0 hr 22 min 24 sec) 
Heartbeat CPU 0 instructions: 90000001 cycles: 59601225 heartbeat IPC: 0.873507 cumulative IPC: 0.872282 (Simulation time: 0 hr 24 min 48 sec) 
*** Reached end of trace for Core: 0 Repeating trace: ../IPC-traces//server_038.champsimtrace.xz
Heartbeat CPU 0 instructions: 100000002 cycles: 71054220 heartbeat IPC: 0.873134 cumulative IPC: 0.872452 (Simulation time: 0 hr 27 min 0 sec) 
Finished CPU 0 instructions: 50000003 cycles: 57309714 cumulative IPC: 0.872453 (Simulation time: 0 hr 27 min 0 sec) 

ChampSim completed all CPUs

Region of Interest Statistics

CPU 0 cumulative IPC: 0.872453 instructions: 50000003 cycles: 57309714

CPU 0 Average Load ROB stall cycles: 1.47221e+07
CPU 0 Fraction of times ROB stalled by Loads: 34.7036
CPU 0 Percentage of Load stall cycles in Total stall cycles: 2.26781e+08
Issued all: 25244146
Issued LT all: 19504879
rob_not_full_when_issued_lt_all: 19321670
Issued LT one: 14497940
rob_not_full_when_issued_lt_one: 14328287
 Total stall cycles: 45658794
 Total load stall cycles: 103545487506610
CPU 0 NUM of IPS identified critical: 0
CPU 0 Num of Load IPs stalling ROB: 4309
Threshold modification factor: -1
Max PIST entries: 64
Min PIST entries: 0
Avg PIST entries: 32
Trouble in retire width: 0.811143
MaC = Marked as critical.
lt_50_percent_before_Mac: 0
gt_90_percent_before_Mac: 0
gt_75_percent_before_Mac: 0
gt_50_percent_before_Mac: 0
stall_proportion_bin_same_before_after: 0
stall_proportion_bin_lower_before_after: 0
stall_proportion_bin_upper_before_after: 0
average_stall_proportion_before: -nan
average_stall_proportion_after: -nan
Critical IP stalls, total frequency: 0
Non-critical IP stalls, total frequency: 2440811
Total Freq all stalling IPs: 2440811
stat_90_percent_critical_ip_stalls_freq: 2197100
stat_90_percent_non_critical_ip_stalls_freq: 243711
Critical_IP_ROB_Stalls_Bucket_0: 0
Non-critical_IP_ROB_Stalls_Bucket_0: 1100698
Critical_IP_ROB_Stalls_Bucket_1: 0
Non-critical_IP_ROB_Stalls_Bucket_1: 898112
Critical_IP_ROB_Stalls_Bucket_2: 0
Non-critical_IP_ROB_Stalls_Bucket_2: 311770
Critical_IP_ROB_Stalls_Bucket_3: 0
Non-critical_IP_ROB_Stalls_Bucket_3: 89590
Critical_IP_ROB_Stalls_Bucket_4: 0
Non-critical_IP_ROB_Stalls_Bucket_4: 18983
Critical_IP_ROB_Stalls_Bucket_5: 0
Non-critical_IP_ROB_Stalls_Bucket_5: 13217
Critical_IP_ROB_Stalls_Bucket_6: 0
Non-critical_IP_ROB_Stalls_Bucket_6: 8441
0 => IPs accounting for >50 percent of stalls, 1 => 55, 2 => 60, 3 => 65 and so on till 90.
percent50: 50.0978 num IPs:  245
percent55: 55.0326 num IPs: 283
percent60: 60.0498 num IPs: 322
percent65: 65.0887 num IPs: 362
percent70: 70.0508 num IPs: 403
percent75: 75.0416 num IPs: 447
percent80: 80.0448 num IPs: 496
percent85: 85.0174 num IPs: 553
percent90: 90.0151 num IPs: 644
Critical_ROB_Stalls_Percent_0_Bucket_0: 520758
Non-critical_ROB_Stalls_Percent_0_Bucket_0: 579940
Critical_ROB_Stalls_Percent_0_Bucket_1: 449826
Non-critical_ROB_Stalls_Percent_0_Bucket_1: 448286
Critical_ROB_Stalls_Percent_0_Bucket_2: 180256
Non-critical_ROB_Stalls_Percent_0_Bucket_2: 131514
Critical_ROB_Stalls_Percent_0_Bucket_3: 43556
Non-critical_ROB_Stalls_Percent_0_Bucket_3: 46034
Critical_ROB_Stalls_Percent_0_Bucket_4: 13596
Non-critical_ROB_Stalls_Percent_0_Bucket_4: 5387
Critical_ROB_Stalls_Percent_0_Bucket_5: 10678
Non-critical_ROB_Stalls_Percent_0_Bucket_5: 2539
Critical_ROB_Stalls_Percent_0_Bucket_6: 4122
Non-critical_ROB_Stalls_Percent_0_Bucket_6: 4319
Critical_ROB_Stalls_Percent_1_Bucket_0: 555804
Non-critical_ROB_Stalls_Percent_1_Bucket_0: 544894
Critical_ROB_Stalls_Percent_1_Bucket_1: 519207
Non-critical_ROB_Stalls_Percent_1_Bucket_1: 378905
Critical_ROB_Stalls_Percent_1_Bucket_2: 193810
Non-critical_ROB_Stalls_Percent_1_Bucket_2: 117960
Critical_ROB_Stalls_Percent_1_Bucket_3: 45718
Non-critical_ROB_Stalls_Percent_1_Bucket_3: 43872
Critical_ROB_Stalls_Percent_1_Bucket_4: 13721
Non-critical_ROB_Stalls_Percent_1_Bucket_4: 5262
Critical_ROB_Stalls_Percent_1_Bucket_5: 10822
Non-critical_ROB_Stalls_Percent_1_Bucket_5: 2395
Critical_ROB_Stalls_Percent_1_Bucket_6: 4159
Non-critical_ROB_Stalls_Percent_1_Bucket_6: 4282
Critical_ROB_Stalls_Percent_2_Bucket_0: 598052
Non-critical_ROB_Stalls_Percent_2_Bucket_0: 502646
Critical_ROB_Stalls_Percent_2_Bucket_1: 572563
Non-critical_ROB_Stalls_Percent_2_Bucket_1: 325549
Critical_ROB_Stalls_Percent_2_Bucket_2: 212264
Non-critical_ROB_Stalls_Percent_2_Bucket_2: 99506
Critical_ROB_Stalls_Percent_2_Bucket_3: 54020
Non-critical_ROB_Stalls_Percent_2_Bucket_3: 35570
Critical_ROB_Stalls_Percent_2_Bucket_4: 13812
Non-critical_ROB_Stalls_Percent_2_Bucket_4: 5171
Critical_ROB_Stalls_Percent_2_Bucket_5: 10833
Non-critical_ROB_Stalls_Percent_2_Bucket_5: 2384
Critical_ROB_Stalls_Percent_2_Bucket_6: 4159
Non-critical_ROB_Stalls_Percent_2_Bucket_6: 4282
Critical_ROB_Stalls_Percent_3_Bucket_0: 661491
Non-critical_ROB_Stalls_Percent_3_Bucket_0: 439207
Critical_ROB_Stalls_Percent_3_Bucket_1: 613681
Non-critical_ROB_Stalls_Percent_3_Bucket_1: 284431
Critical_ROB_Stalls_Percent_3_Bucket_2: 224533
Non-critical_ROB_Stalls_Percent_3_Bucket_2: 87237
Critical_ROB_Stalls_Percent_3_Bucket_3: 59641
Non-critical_ROB_Stalls_Percent_3_Bucket_3: 29949
Critical_ROB_Stalls_Percent_3_Bucket_4: 14255
Non-critical_ROB_Stalls_Percent_3_Bucket_4: 4728
Critical_ROB_Stalls_Percent_3_Bucket_5: 10869
Non-critical_ROB_Stalls_Percent_3_Bucket_5: 2348
Critical_ROB_Stalls_Percent_3_Bucket_6: 4221
Non-critical_ROB_Stalls_Percent_3_Bucket_6: 4220
Critical_ROB_Stalls_Percent_4_Bucket_0: 708332
Non-critical_ROB_Stalls_Percent_4_Bucket_0: 392366
Critical_ROB_Stalls_Percent_4_Bucket_1: 663040
Non-critical_ROB_Stalls_Percent_4_Bucket_1: 235072
Critical_ROB_Stalls_Percent_4_Bucket_2: 244771
Non-critical_ROB_Stalls_Percent_4_Bucket_2: 66999
Critical_ROB_Stalls_Percent_4_Bucket_3: 64046
Non-critical_ROB_Stalls_Percent_4_Bucket_3: 25544
Critical_ROB_Stalls_Percent_4_Bucket_4: 14469
Non-critical_ROB_Stalls_Percent_4_Bucket_4: 4514
Critical_ROB_Stalls_Percent_4_Bucket_5: 10883
Non-critical_ROB_Stalls_Percent_4_Bucket_5: 2334
Critical_ROB_Stalls_Percent_4_Bucket_6: 4267
Non-critical_ROB_Stalls_Percent_4_Bucket_6: 4174
Critical_ROB_Stalls_Percent_5_Bucket_0: 785792
Non-critical_ROB_Stalls_Percent_5_Bucket_0: 314906
Critical_ROB_Stalls_Percent_5_Bucket_1: 701556
Non-critical_ROB_Stalls_Percent_5_Bucket_1: 196556
Critical_ROB_Stalls_Percent_5_Bucket_2: 248001
Non-critical_ROB_Stalls_Percent_5_Bucket_2: 63769
Critical_ROB_Stalls_Percent_5_Bucket_3: 66215
Non-critical_ROB_Stalls_Percent_5_Bucket_3: 23375
Critical_ROB_Stalls_Percent_5_Bucket_4: 14875
Non-critical_ROB_Stalls_Percent_5_Bucket_4: 4108
Critical_ROB_Stalls_Percent_5_Bucket_5: 10915
Non-critical_ROB_Stalls_Percent_5_Bucket_5: 2302
Critical_ROB_Stalls_Percent_5_Bucket_6: 4270
Non-critical_ROB_Stalls_Percent_5_Bucket_6: 4171
Critical_ROB_Stalls_Percent_6_Bucket_0: 847401
Non-critical_ROB_Stalls_Percent_6_Bucket_0: 253297
Critical_ROB_Stalls_Percent_6_Bucket_1: 744860
Non-critical_ROB_Stalls_Percent_6_Bucket_1: 153252
Critical_ROB_Stalls_Percent_6_Bucket_2: 260224
Non-critical_ROB_Stalls_Percent_6_Bucket_2: 51546
Critical_ROB_Stalls_Percent_6_Bucket_3: 70459
Non-critical_ROB_Stalls_Percent_6_Bucket_3: 19131
Critical_ROB_Stalls_Percent_6_Bucket_4: 15286
Non-critical_ROB_Stalls_Percent_6_Bucket_4: 3697
Critical_ROB_Stalls_Percent_6_Bucket_5: 11194
Non-critical_ROB_Stalls_Percent_6_Bucket_5: 2023
Critical_ROB_Stalls_Percent_6_Bucket_6: 4319
Non-critical_ROB_Stalls_Percent_6_Bucket_6: 4122
Critical_ROB_Stalls_Percent_7_Bucket_0: 925761
Non-critical_ROB_Stalls_Percent_7_Bucket_0: 174937
Critical_ROB_Stalls_Percent_7_Bucket_1: 773148
Non-critical_ROB_Stalls_Percent_7_Bucket_1: 124964
Critical_ROB_Stalls_Percent_7_Bucket_2: 269005
Non-critical_ROB_Stalls_Percent_7_Bucket_2: 42765
Critical_ROB_Stalls_Percent_7_Bucket_3: 72957
Non-critical_ROB_Stalls_Percent_7_Bucket_3: 16633
Critical_ROB_Stalls_Percent_7_Bucket_4: 15529
Non-critical_ROB_Stalls_Percent_7_Bucket_4: 3454
Critical_ROB_Stalls_Percent_7_Bucket_5: 12405
Non-critical_ROB_Stalls_Percent_7_Bucket_5: 812
Critical_ROB_Stalls_Percent_7_Bucket_6: 6309
Non-critical_ROB_Stalls_Percent_7_Bucket_6: 2132
Critical_ROB_Stalls_Percent_8_Bucket_0: 993742
Non-critical_ROB_Stalls_Percent_8_Bucket_0: 106956
Critical_ROB_Stalls_Percent_8_Bucket_1: 810241
Non-critical_ROB_Stalls_Percent_8_Bucket_1: 87871
Critical_ROB_Stalls_Percent_8_Bucket_2: 279166
Non-critical_ROB_Stalls_Percent_8_Bucket_2: 32604
Critical_ROB_Stalls_Percent_8_Bucket_3: 77910
Non-critical_ROB_Stalls_Percent_8_Bucket_3: 11680
Critical_ROB_Stalls_Percent_8_Bucket_4: 15747
Non-critical_ROB_Stalls_Percent_8_Bucket_4: 3236
Critical_ROB_Stalls_Percent_8_Bucket_5: 12549
Non-critical_ROB_Stalls_Percent_8_Bucket_5: 668
Critical_ROB_Stalls_Percent_8_Bucket_6: 7745
Non-critical_ROB_Stalls_Percent_8_Bucket_6: 696
Average ROB occupancy Load Stall Begin: 54.1516
Average ROB occupancy Load Stall End: 65.5768
Min ROB occupancy Load Stall Begin: 1
Max ROB occupancy Load Stall Begin: 352
Min ROB occupancy Load Stall End: 1
Max ROB occupancy Load Stall End: 352
Average ROB occupancy Critical Load Stall Begin: -nan
Average ROB occupancy Critical Load Stall End: -nan
Min ROB occupancy Critical Load Stall Begin: 400
Max ROB occupancy Critical Load Stall Begin: 0
Min ROB occupancy Critical Load Stall End: 400
Max ROB occupancy Critical Load Stall End: 0
 ROB Load Stall Begin Bucket Count 0: 1431850
 ROB Load Stall End Bucket Count 0: 1100698
 ROB Critical Load Stall Begin Bucket Count 0: 0
 ROB Critical Load Stall End Bucket Count 0: 0
 ROB Load Stall Begin Bucket Count 1: 702306
 ROB Load Stall End Bucket Count 1: 898112
 ROB Critical Load Stall Begin Bucket Count 1: 0
 ROB Critical Load Stall End Bucket Count 1: 0
 ROB Load Stall Begin Bucket Count 2: 220536
 ROB Load Stall End Bucket Count 2: 311770
 ROB Critical Load Stall Begin Bucket Count 2: 0
 ROB Critical Load Stall End Bucket Count 2: 0
 ROB Load Stall Begin Bucket Count 3: 56937
 ROB Load Stall End Bucket Count 3: 89590
 ROB Critical Load Stall Begin Bucket Count 3: 0
 ROB Critical Load Stall End Bucket Count 3: 0
 ROB Load Stall Begin Bucket Count 4: 9866
 ROB Load Stall End Bucket Count 4: 18983
 ROB Critical Load Stall Begin Bucket Count 4: 0
 ROB Critical Load Stall End Bucket Count 4: 0
 ROB Load Stall Begin Bucket Count 5: 12838
 ROB Load Stall End Bucket Count 5: 13217
 ROB Critical Load Stall Begin Bucket Count 5: 0
 ROB Critical Load Stall End Bucket Count 5: 0
 ROB Load Stall Begin Bucket Count 6: 6478
 ROB Load Stall End Bucket Count 6: 8441
 ROB Critical Load Stall Begin Bucket Count 6: 0
 ROB Critical Load Stall End Bucket Count 6: 0
PIST Tag Read Accesses: 3168788
PIST Read Accesses: 1584394
PIST Tag Write Accesses: 3168788
PIST Write Accesses: 1584394
Criticality detector called times: 2439025
Max global_stall_cycles_count: 2791453
Threshold Modified: 1 times, factor: -1
Sturdy critical IP cache stats: 
 Unused entries: 0
CIC Tag Read Accesses: 0
CIC Read Accesses: 0
CIC Tag Write Accesses: 0
CIC Write Accesses: 0
Wobbly critical IP cache stats: 
 Unused entries: 127
CIC Tag Read Accesses: 76500533
CIC Read Accesses: 0
CIC Tag Write Accesses: 1
CIC Write Accesses: 0
ITLB TOTAL     ACCESS:   10593593  HIT:    9859998  MISS:     733595  HIT %:    93.0751  MISS %:    6.92489   MPKI: 14.6719
ITLB LOAD TRANSLATION ACCESS:    8007739  HIT:    7973873  MISS:      33866  HIT %:    99.5771  MISS %:   0.422916   MPKI: 0.67732
ITLB TRANSLATION FROM L1D PREFETCHER ACCESS:    2585854  HIT:    1886125  MISS:     699729  HIT %:    72.9401  MISS %:    27.0599   MPKI: 13.9946
ITLB PREFETCH  REQUESTED:          0  ISSUED:          0  USEFUL:     649127  USELESS:      50603
ITLB USEFUL LOAD PREFETCHES:     649127 PREFETCH ISSUED TO LOWER LEVEL:          0  ACCURACY: inf
ITLB TIMELY PREFETCHES:     649127 LATE PREFETCHES: 2 DROPPED PREFETCHES: 79
ITLB PREFETCHES SAME FILL-ORIGIN LEVEL: 0 DIFFERENT FILL-ORIGIN LEVEL: 0
ITLB AVERAGE MISS LATENCY: 92.6163 cycles
ITLB RQ	ACCESS:   16275148	FORWARD:          0	MERGED:    5590690	TO_CACHE:   10684458

DTLB TOTAL     ACCESS:    9399240  HIT:    8879383  MISS:     519857  HIT %:    94.4692  MISS %:    5.53084   MPKI: 10.3971
DTLB LOAD TRANSLATION ACCESS:    9399240  HIT:    8879383  MISS:     519857  HIT %:    94.4692  MISS %:    5.53084   MPKI: 10.3971
DTLB PREFETCH  REQUESTED:          0  ISSUED:          0  USEFUL:          0  USELESS:          0
DTLB USEFUL LOAD PREFETCHES:          0 PREFETCH ISSUED TO LOWER LEVEL:          0  ACCURACY: -nan
DTLB TIMELY PREFETCHES:          0 LATE PREFETCHES: 0 DROPPED PREFETCHES: 0
DTLB PREFETCHES SAME FILL-ORIGIN LEVEL: 0 DIFFERENT FILL-ORIGIN LEVEL: 0
DTLB AVERAGE MISS LATENCY: 9.85866 cycles
DTLB RQ	ACCESS:   13432231	FORWARD:          0	MERGED:    3990655	TO_CACHE:    9441576

STLB TOTAL     ACCESS:    1260010  HIT:    1254134  MISS:       5876  HIT %:    99.5337  MISS %:   0.466346   MPKI: 0.11752
STLB LOAD TRANSLATION ACCESS:     553721  HIT:     547969  MISS:       5752  HIT %:    98.9612  MISS %:    1.03879   MPKI: 0.11504
STLB TRANSLATION FROM L1D PREFETCHER ACCESS:     706289  HIT:     706165  MISS:        124  HIT %:    99.9824  MISS %:  0.0175566   MPKI: 0.00248
STLB PREFETCH  REQUESTED:          0  ISSUED:          0  USEFUL:         64  USELESS:         48
STLB USEFUL LOAD PREFETCHES:         64 PREFETCH ISSUED TO LOWER LEVEL:          0  ACCURACY: inf
STLB TIMELY PREFETCHES:         64 LATE PREFETCHES: 0 DROPPED PREFETCHES: 79
STLB PREFETCHES SAME FILL-ORIGIN LEVEL: 0 DIFFERENT FILL-ORIGIN LEVEL: 0
STLB AVERAGE MISS LATENCY: 75.0187 cycles
STLB RQ	ACCESS:    1263224	FORWARD:          0	MERGED:       3135	TO_CACHE:    1260089

STLB Hit, L1D data hit: 0
STLB Hit, L2C data hit: 0
STLB Hit, LLC data hit: 0
STLB Hit, LLC data miss: 0
STLB STLB hints to L2: 0
L1D TOTAL     ACCESS:   13342997  HIT:   12900724  MISS:     442273  HIT %:    96.6854  MISS %:    3.31465   MPKI: 8.84546
L1D LOAD      ACCESS:    7083946  HIT:    6707115  MISS:     376831  HIT %:    94.6805  MISS %:    5.31951   MPKI: 7.53662
L1D RFO       ACCESS:    6250317  HIT:    6187988  MISS:      62329  HIT %:    99.0028  MISS %:   0.997213   MPKI: 1.24658
L1D PREFETCH  ACCESS:       8734  HIT:       5621  MISS:       3113  HIT %:    64.3577  MISS %:    35.6423   MPKI: 0.06226
L1D PREFETCH  REQUESTED:      19389  ISSUED:      19389  USEFUL:       1618  USELESS:       1556
L1D USEFUL LOAD PREFETCHES:       1618 PREFETCH ISSUED TO LOWER LEVEL:       3779  ACCURACY: 42.8156
L1D TIMELY PREFETCHES:       1618 LATE PREFETCHES: 666 DROPPED PREFETCHES: 0
L1D PREFETCHES SAME FILL-ORIGIN LEVEL: 3779 DIFFERENT FILL-ORIGIN LEVEL: 0
L1D AVERAGE MISS LATENCY: 63918.2 cycles
L1D RQ	ACCESS:   10950758	FORWARD:          0	MERGED:    3698352	TO_CACHE:    7098540
L1D WQ	ACCESS:    6427456	FORWARD:     153869	MERGED:      93765	TO_CACHE:    6333691
L1D PQ	ACCESS:       9696	FORWARD:          0	MERGED:          0	TO_CACHE:       9693

L1D UNIQUE REGIONS ACCESSED: 0
L1D REGIONS CONFLICTS: 0
L1D Cross Page Prefetch Requests: 0
L1D Same Page Prefetch Requests: 185094
L1D ROI Sum of L1D PQ occupancy: 125597
L1D PREFETCHES PUSHED FROM L2C: 0
L1I TOTAL     ACCESS:   16232793  HIT:   11489128  MISS:    4743665  HIT %:    70.7773  MISS %:    29.2227   MPKI: 94.8733
L1I LOAD      ACCESS:    9520692  HIT:    9502977  MISS:      17715  HIT %:    99.8139  MISS %:   0.186068   MPKI: 0.3543
L1I PREFETCH  ACCESS:    6712101  HIT:    1986151  MISS:    4725950  HIT %:    29.5906  MISS %:    70.4094   MPKI: 94.519
L1I PREFETCH  REQUESTED:    6941956  ISSUED:    6922277  USEFUL:    4096462  USELESS:     629497
L1I USEFUL LOAD PREFETCHES:    4096462 PREFETCH ISSUED TO LOWER LEVEL:    4729487  ACCURACY: 86.6154
L1I TIMELY PREFETCHES:    4096462 LATE PREFETCHES: 3540 DROPPED PREFETCHES: 158
L1I PREFETCHES SAME FILL-ORIGIN LEVEL: 4729487 DIFFERENT FILL-ORIGIN LEVEL: 0
L1I AVERAGE MISS LATENCY: 30432.6 cycles
L1I RQ	ACCESS:   14205795	FORWARD:          0	MERGED:    4684349	TO_CACHE:    9521446
L1I PQ	ACCESS:    6922277	FORWARD:          0	MERGED:     168575	TO_CACHE:    6753702

BTB TOTAL     ACCESS:    5373999  HIT:    4845470  MISS:     528529  HIT %:    90.1651  MISS %:    9.83493   MPKI: 10.5706
BTB BRANCH_DIRECT_JUMP	ACCESS:     541911  HIT:     528428  MISS:      13483
BTB BRANCH_INDIRECT	ACCESS:      59690  HIT:      59594  MISS:         96
BTB BRANCH_CONDITIONAL	ACCESS:    2296252  HIT:    2253029  MISS:      43223
BTB BRANCH_DIRECT_CALL	ACCESS:    1003585  HIT:     965030  MISS:      38555
BTB BRANCH_INDIRECT_CALL	ACCESS:     234499  HIT:     188656  MISS:      45843
BTB BRANCH_RETURN	ACCESS:    1238062  HIT:     850733  MISS:     387329
BTB BRANCH_OTHER ACCESS:          0  HIT:          0  MISS:          0

L2C TOTAL     ACCESS:    5444909  HIT:    5290309  MISS:     154600  HIT %:    97.1607  MISS %:    2.83935   MPKI: 3.092
L2C LOAD      ACCESS:     390263  HIT:     281362  MISS:     108901  HIT %:    72.0955  MISS %:    27.9045   MPKI: 2.17802
L2C DATA LOAD MPKI: 2.1656
L2C INSTRUCTION LOAD MPKI: 0.01242
L2C RFO       ACCESS:      62329  HIT:      37790  MISS:      24539  HIT %:    60.6299  MISS %:    39.3701   MPKI: 0.49078
L2C PREFETCH  ACCESS:    4750882  HIT:    4739482  MISS:      11400  HIT %:      99.76  MISS %:   0.239955   MPKI: 0.228
L2C DATA PREFETCH MPKI: 0.12474
L2C INSTRUCTION PREFETCH MPKI: 0.10326
L2C WRITEBACK ACCESS:     233225  HIT:     228473  MISS:       4752  HIT %:    97.9625  MISS %:    2.03752   MPKI: 0.09504
L2C LOAD TRANSLATION ACCESS:       7871  HIT:       2998  MISS:       4873  HIT %:    38.0892  MISS %:    61.9108   MPKI: 0.09746
L2C TRANSLATION FROM L1D PREFETCHER ACCESS:        339  HIT:        204  MISS:        135  HIT %:     60.177  MISS %:     39.823   MPKI: 0.0027
L2C PREFETCH  REQUESTED:      28837  ISSUED:      28837  USEFUL:       1418  USELESS:      11271
L2C USEFUL LOAD PREFETCHES:       1418 PREFETCH ISSUED TO LOWER LEVEL:      11434  ACCURACY: 12.4016
L2C TIMELY PREFETCHES:       1418 LATE PREFETCHES: 34 DROPPED PREFETCHES: 0
L2C PREFETCHES SAME FILL-ORIGIN LEVEL: 4737 DIFFERENT FILL-ORIGIN LEVEL: 0
L2C AVERAGE MISS LATENCY: 52.0264 cycles
L2C RQ	ACCESS:     460879	FORWARD:          0	MERGED:          0	TO_CACHE:     460802
L2C WQ	ACCESS:     233225	FORWARD:         77	MERGED:          0	TO_CACHE:     233225
L2C PQ	ACCESS:    4762103	FORWARD:          0	MERGED:       9873	TO_CACHE:    4752230

L2C Instructions Evicting Data 5292
L2C Translations Evicting Data 4557
L2C Data Evicting Data 129799
L2C Instructions Evicting Instructions 302
L2C Translations Evicting Instructions 189
L2C Data Evicting Instructions 4860
L2C Instructions Evicting Translations 190
L2C Translations Evicting Translations 262
L2C Data Evicting Translations 4397
L2C Dense regions hint from L2: 0
PSCL5 TOTAL     ACCESS:       5955  HIT:       5955  MISS:          0  HIT %:        100  MISS %:          0   MPKI: 0
PSCL5 LOAD TRANSLATION ACCESS:       5752  HIT:       5752  MISS:          0  HIT %:        100  MISS %:          0   MPKI: 0
PSCL5 TRANSLATION FROM L1D PREFETCHER ACCESS:        203  HIT:        203  MISS:          0  HIT %:        100  MISS %:          0   MPKI: 0
PSCL5 PREFETCH  REQUESTED:          0  ISSUED:          0  USEFUL:          0  USELESS:          0
PSCL5 USEFUL LOAD PREFETCHES:          0 PREFETCH ISSUED TO LOWER LEVEL:          0  ACCURACY: -nan
PSCL5 TIMELY PREFETCHES:          0 LATE PREFETCHES: 0 DROPPED PREFETCHES: 0
PSCL5 PREFETCHES SAME FILL-ORIGIN LEVEL: 0 DIFFERENT FILL-ORIGIN LEVEL: 0

PSCL4 TOTAL     ACCESS:       5936  HIT:       5933  MISS:          3  HIT %:    99.9495  MISS %:  0.0505391   MPKI: 6e-05
PSCL4 LOAD TRANSLATION ACCESS:       5733  HIT:       5730  MISS:          3  HIT %:    99.9477  MISS %:  0.0523286   MPKI: 6e-05
PSCL4 TRANSLATION FROM L1D PREFETCHER ACCESS:        203  HIT:        203  MISS:          0  HIT %:        100  MISS %:          0   MPKI: 0
PSCL4 PREFETCH  REQUESTED:          0  ISSUED:          0  USEFUL:          0  USELESS:          0
PSCL4 USEFUL LOAD PREFETCHES:          0 PREFETCH ISSUED TO LOWER LEVEL:          0  ACCURACY: -nan
PSCL4 TIMELY PREFETCHES:          0 LATE PREFETCHES: 0 DROPPED PREFETCHES: 0
PSCL4 PREFETCHES SAME FILL-ORIGIN LEVEL: 0 DIFFERENT FILL-ORIGIN LEVEL: 0

PSCL3 TOTAL     ACCESS:       5946  HIT:       5940  MISS:          6  HIT %:    99.8991  MISS %:   0.100908   MPKI: 0.00012
PSCL3 LOAD TRANSLATION ACCESS:       5743  HIT:       5737  MISS:          6  HIT %:    99.8955  MISS %:   0.104475   MPKI: 0.00012
PSCL3 TRANSLATION FROM L1D PREFETCHER ACCESS:        203  HIT:        203  MISS:          0  HIT %:        100  MISS %:          0   MPKI: 0
PSCL3 PREFETCH  REQUESTED:          0  ISSUED:          0  USEFUL:          0  USELESS:          0
PSCL3 USEFUL LOAD PREFETCHES:          0 PREFETCH ISSUED TO LOWER LEVEL:          0  ACCURACY: -nan
PSCL3 TIMELY PREFETCHES:          0 LATE PREFETCHES: 0 DROPPED PREFETCHES: 0
PSCL3 PREFETCHES SAME FILL-ORIGIN LEVEL: 0 DIFFERENT FILL-ORIGIN LEVEL: 0

PSCL2 TOTAL     ACCESS:       5876  HIT:       3686  MISS:       2190  HIT %:    62.7297  MISS %:    37.2703   MPKI: 0.0438
PSCL2 LOAD TRANSLATION ACCESS:       5809  HIT:       3619  MISS:       2190  HIT %:    62.2999  MISS %:    37.7001   MPKI: 0.0438
PSCL2 TRANSLATION FROM L1D PREFETCHER ACCESS:         67  HIT:         67  MISS:          0  HIT %:        100  MISS %:          0   MPKI: 0
PSCL2 PREFETCH  REQUESTED:          0  ISSUED:          0  USEFUL:          0  USELESS:          0
PSCL2 USEFUL LOAD PREFETCHES:          0 PREFETCH ISSUED TO LOWER LEVEL:          0  ACCURACY: -nan
PSCL2 TIMELY PREFETCHES:          0 LATE PREFETCHES: 0 DROPPED PREFETCHES: 0
PSCL2 PREFETCHES SAME FILL-ORIGIN LEVEL: 0 DIFFERENT FILL-ORIGIN LEVEL: 0

LLC TOTAL     ACCESS:     222082  HIT:     199207  MISS:      22875  HIT %:    89.6998  MISS %:    10.3002   MPKI: 0.4575
LLC LOAD      ACCESS:     108865  HIT:      94485  MISS:      14380  HIT %:     86.791  MISS %:     13.209   MPKI: 0.2876
LLC RFO       ACCESS:      24539  HIT:      18903  MISS:       5636  HIT %:    77.0325  MISS %:    22.9675   MPKI: 0.11272
LLC PREFETCH  ACCESS:      11434  HIT:       8877  MISS:       2557  HIT %:    77.6369  MISS %:    22.3631   MPKI: 0.05114
LLC WRITEBACK ACCESS:      72236  HIT:      72096  MISS:        140  HIT %:    99.8062  MISS %:   0.193809   MPKI: 0.0028
LLC LOAD TRANSLATION ACCESS:       4873  HIT:       4711  MISS:        162  HIT %:    96.6756  MISS %:    3.32444   MPKI: 0.00324
LLC TRANSLATION FROM L1D PREFETCHER ACCESS:        135  HIT:        135  MISS:          0  HIT %:        100  MISS %:          0   MPKI: 0
LLC PREFETCH  REQUESTED:          0  ISSUED:          0  USEFUL:        767  USELESS:       6218
LLC USEFUL LOAD PREFETCHES:        767 PREFETCH ISSUED TO LOWER LEVEL:       2557  ACCURACY: 29.9961
LLC TIMELY PREFETCHES:        767 LATE PREFETCHES: 0 DROPPED PREFETCHES: 0
LLC PREFETCHES SAME FILL-ORIGIN LEVEL: 0 DIFFERENT FILL-ORIGIN LEVEL: 0
LLC AVERAGE MISS LATENCY: 154.982 cycles
LLC RQ	ACCESS:     138414	FORWARD:          0	MERGED:          0	TO_CACHE:     138412
LLC WQ	ACCESS:      72236	FORWARD:          2	MERGED:          0	TO_CACHE:      72236
LLC PQ	ACCESS:      11434	FORWARD:          0	MERGED:          0	TO_CACHE:      11434

LLC Dense regions hint to LLC: 0

RAW hits: 1598733
Loads Generated: 12549491
Loads sent to L1D: 10950758
Stores Generated: 6427447
Stores sent to L1D: 6427456
Major fault: 0 Minor fault: 5748
Allocated PAGES: 5748
I-Shadow cache 408 bytes
Touched + WorthPF tables 6144 bytes 
MMA filter 174 bytes 
FNL filter 272 bytes 
TOTAL PREFETCHER STORAGE SIZE: 25174 bytes
CPU 0 L1I next line prefetcher final stats

stream: 
stream:times selected: 305010
stream:pref_filled: 26163
stream:pref_useful: 7180
stream:pref_late: 1013
stream:misses: 220
stream:misses_by_poll: 0

CS: 
CS:times selected: 8076
CS:pref_filled: 2718
CS:pref_useful: 2629
CS:pref_late: 637
CS:misses: 738
CS:misses_by_poll: 0

CPLX: 
CPLX:times selected: 294077
CPLX:pref_filled: 25027
CPLX:pref_useful: 4510
CPLX:pref_late: 354
CPLX:misses: 5304
CPLX:misses_by_poll: 0

NL_L1: 
NL:times selected: 7139
NL:pref_filled: 137
NL:pref_useful: 21
NL:pref_late: 1
NL:misses: 0
NL:misses_by_poll: 0

total selections: 614302
total_filled: 3113
total_useful: 1618
total_late: 2057
total_polluted: 0
total_misses_after_warmup: 391426
conflicts: 3222656
Degree Incremented Times: 17
Degree Decremented Times: 60437

L1 IP Table Write Accesses: 3716034
L1 IP Table Read Accesses: 493378
L1 RST Write Accesses: 158731
L1 RST Read Accesses: 317462
L1 CSPT Write Accesses: 158731
L1 CSPT Read Accesses: 311572
L1 RR Filter Tag Write Accesses: 9696
L1 RR Filter Tag Read Accesses: 566889
L1 IP Table Tag Write Accesses: 7098541
L1 IP Table Tag Read Accesses: 7098541
L1 RST Tag Write Accesses: 0
L1 RST Tag Read Accesses: 1648913
L1 RR Filter Write Accesses: 0
L1 RR Filter Read Accesses: 18269
test: 113389
L2 IP Table Read Accesses: 5189163
L2 IP Table Write Accesses: 10111991
L2 IP Table Tag Read Accesses: 5107224
L2 IP Table Tag Write Accesses: 5107224

DRAM Statistics
 CHANNEL 0
 RQ ROW_BUFFER_HIT:       4853  ROW_BUFFER_MISS:      17882
 DBUS_CONGESTED:          3
 WQ ROW_BUFFER_HIT:        667  ROW_BUFFER_MISS:       6937  FULL:          0

 AVG_CONGESTED_CYCLE: 4
 All warmup complete: 2
Channel 0 Bank busy for read cycles: 0
Channel 0 Bank busy for write cycles: 0
Channel 0
Rank 0
0banks busy for read cycles: 54097279
0banks busy for write cycles: 5251
1banks busy for read cycles: 1683529
1banks busy for write cycles: 832554
2banks busy for read cycles: 394892
2banks busy for write cycles: 148253
3banks busy for read cycles: 21160
3banks busy for write cycles: 19145
4banks busy for read cycles: 16947
4banks busy for write cycles: 13782
5banks busy for read cycles: 14165
5banks busy for write cycles: 6005
6banks busy for read cycles: 22184
6banks busy for write cycles: 9793
7banks busy for read cycles: 16734
7banks busy for write cycles: 5901
8banks busy for read cycles: 0
8banks busy for write cycles: 2141

CPU 0 Branch Prediction Accuracy: 99.9279% MPKI: 0.12968 Average ROB Occupancy at Mispredict: 53.0623
Branch types
NOT_BRANCH: 41006140 82.0123%
BRANCH_DIRECT_JUMP: 541911 1.08382%
BRANCH_INDIRECT: 59690 0.11938%
BRANCH_CONDITIONAL: 5915823 11.8316%
BRANCH_DIRECT_CALL: 1003585 2.00717%
BRANCH_INDIRECT_CALL: 234499 0.468998%
BRANCH_RETURN: 1238062 2.47612%
BRANCH_OTHER: 0 0%

DRAM PAGES: 1048576
Allocated PAGES: 5748
