
*** ChampSim Multicore Out-of-Order Simulator ***

Warmup Instructions: 50000000
Simulation Instructions: 50000000
Number of CPUs: 1
LLC sets: 2048
LLC ways: 16
Off-chip DRAM Size: 4096 MB Channels: 1 Width: 64-bit Data Rate: 6400 MT/s
CPU 0 runs ../IPC-traces//server_026.champsimtrace.xz
.xz
NUM_OF_IPS_IN_CRITICAL_IP_TRAINING: 64
NUM_OF_CRITICAL_IP_TRAINING_TABLE_WAYS: 2
NUM_OF_CRITICAL_IP_TRAINING_TABLE_SETS: 32
WOBBLY_CRITICAL_IP_CACHE_SETS: 32
WOBBLY_CRITICAL_IP_CACHE_WAYS: 4
BTB has LRU replacement policy
ITLB has LRU replacement policy
DTLB has LRU replacement policy
STLB has LRU replacement policy
CPU 0 L1I next line prefetcher
L1I has LRU replacement policy
L1D has LRU replacement policy
Bingo PHT WAYS: 16 and PHT_SIZE: 16384
Initialize SRRIP state for L2C
Initialize DRRIP state for LLC
Heartbeat CPU 0 instructions: 10000000 cycles: 2882991 heartbeat IPC: 3.46862 cumulative IPC: 3.46862 (Simulation time: 0 hr 2 min 59 sec) 
Heartbeat CPU 0 instructions: 20000002 cycles: 5763673 heartbeat IPC: 3.4714 cumulative IPC: 3.47001 (Simulation time: 0 hr 5 min 41 sec) 
Heartbeat CPU 0 instructions: 30000003 cycles: 8641522 heartbeat IPC: 3.47482 cumulative IPC: 3.47161 (Simulation time: 0 hr 8 min 18 sec) 
Heartbeat CPU 0 instructions: 40000001 cycles: 11522168 heartbeat IPC: 3.47144 cumulative IPC: 3.47157 (Simulation time: 0 hr 10 min 32 sec) 
Heartbeat CPU 0 instructions: 50000000 cycles: 14400378 heartbeat IPC: 3.47438 cumulative IPC: 3.47213 (Simulation time: 0 hr 12 min 41 sec) 

Warmup complete CPU 0 instructions: 50000004 cycles: 14400379 (Simulation time: 0 hr 12 min 41 sec) 

% increase in all ip prefetch 429.776
% increase in all ip prefetch 3.10109
*** Reached end of trace for Core: 0 Repeating trace: ../IPC-traces//server_026.champsimtrace.xz
Heartbeat CPU 0 instructions: 60000000 cycles: 30839280 heartbeat IPC: 0.608313 cumulative IPC: 0.608313 (Simulation time: 0 hr 15 min 11 sec) 
Heartbeat CPU 0 instructions: 70000001 cycles: 47078323 heartbeat IPC: 0.6158 cumulative IPC: 0.612034 (Simulation time: 0 hr 17 min 41 sec) 
Heartbeat CPU 0 instructions: 80000003 cycles: 63407313 heartbeat IPC: 0.612408 cumulative IPC: 0.612158 (Simulation time: 0 hr 20 min 8 sec) 
Heartbeat CPU 0 instructions: 90000002 cycles: 79682656 heartbeat IPC: 0.614426 cumulative IPC: 0.612724 (Simulation time: 0 hr 22 min 34 sec) 
Heartbeat CPU 0 instructions: 100000000 cycles: 96007602 heartbeat IPC: 0.612559 cumulative IPC: 0.612691 (Simulation time: 0 hr 25 min 21 sec) 
Finished CPU 0 instructions: 50000000 cycles: 81607224 cumulative IPC: 0.612691 (Simulation time: 0 hr 25 min 21 sec) 

ChampSim completed all CPUs

Region of Interest Statistics

CPU 0 cumulative IPC: 0.612691 instructions: 50000000 cycles: 81607224

CPU 0 Average Load ROB stall cycles: 1.9839e+07
CPU 0 Fraction of times ROB stalled by Loads: 35.903
CPU 0 Percentage of Load stall cycles in Total stall cycles: 2.85051e+08
Issued all: 28222180
Issued LT all: 22426509
rob_not_full_when_issued_lt_all: 22043971
Issued LT one: 17403574
rob_not_full_when_issued_lt_one: 17071579
critical_ip_candidate_identification_operations: 7036764
critical_ip_candidate_identification_operation_per_cycle: 0.0862272
 Total stall cycles: 68203908
 Total load stall cycles: 194415786382758
Unique Load IPs: 13263
CPU 0 NUM of IPS identified critical: 3
CPU 0 Num of Load IPs stalling ROB: 11877
Threshold modification factor: -1
Max PIST entries: 64
Min PIST entries: 0
Avg PIST entries: 32
Trouble in retire width: 0.910219
MaC = Marked as critical.
lt_50_percent_before_Mac: 3
gt_90_percent_before_Mac: 0
gt_75_percent_before_Mac: 0
gt_50_percent_before_Mac: 0
stall_proportion_bin_same_before_after: 0
stall_proportion_bin_lower_before_after: 0
stall_proportion_bin_upper_before_after: 0
average_stall_proportion_before: 0.0562562
average_stall_proportion_after: 0.0560005
Critical IP stalls, total frequency: 112814
Non-critical IP stalls, total frequency: 3405568
Total Freq all stalling IPs: 3518382
Critical_IP_Detector_Accuracy_70: 1
Critical_IP_Detector_Accuracy_80: 1
Critical_IP_Detector_Accuracy_90: 1
Critical_IP_Detector_Coverage_70: 0.00195059
Critical_IP_Detector_Coverage_80: 0.00131752
Critical_IP_Detector_Coverage_90: 0.000856653
stat_90_percent_critical_ip_stalls_freq: 3166537
stat_90_percent_non_critical_ip_stalls_freq: 351845
AVERAGE_ROB_Occupancy_90_Percent_Critical_IP_Stalls: 46.7243
AVERAGE_ROB_Occupancy_90_Percent_Non_Critical_IP_Stalls: 26.504
Critical_IP_ROB_Stalls_Bucket_0: 2500
Non-critical_IP_ROB_Stalls_Bucket_0: 2495680
Critical_IP_ROB_Stalls_Bucket_1: 51233
Non-critical_IP_ROB_Stalls_Bucket_1: 638833
Critical_IP_ROB_Stalls_Bucket_2: 24131
Non-critical_IP_ROB_Stalls_Bucket_2: 199382
Critical_IP_ROB_Stalls_Bucket_3: 8315
Non-critical_IP_ROB_Stalls_Bucket_3: 47660
Critical_IP_ROB_Stalls_Bucket_4: 5717
Non-critical_IP_ROB_Stalls_Bucket_4: 14271
Critical_IP_ROB_Stalls_Bucket_5: 5081
Non-critical_IP_ROB_Stalls_Bucket_5: 5926
Critical_IP_ROB_Stalls_Bucket_6: 15837
Non-critical_IP_ROB_Stalls_Bucket_6: 3816
0 => IPs accounting for >50 percent of stalls, 1 => 55, 2 => 60, 3 => 65 and so on till 90.
percent50: 50.0172 num IPs:  550
percent55: 55.0087 num IPs: 769
percent60: 60.0125 num IPs: 1012
percent65: 65.0062 num IPs: 1258
percent70: 70.006 num IPs: 1538
percent75: 75.003 num IPs: 1896
percent80: 80.0099 num IPs: 2277
percent85: 85.0037 num IPs: 2797
percent90: 90.0004 num IPs: 3502
Critical_ROB_Stalls_Percent_0_Bucket_0: 1020980
Non-critical_ROB_Stalls_Percent_0_Bucket_0: 1477200
Critical_ROB_Stalls_Percent_0_Bucket_1: 466552
Non-critical_ROB_Stalls_Percent_0_Bucket_1: 223514
Critical_ROB_Stalls_Percent_0_Bucket_2: 176612
Non-critical_ROB_Stalls_Percent_0_Bucket_2: 46901
Critical_ROB_Stalls_Percent_0_Bucket_3: 50402
Non-critical_ROB_Stalls_Percent_0_Bucket_3: 5573
Critical_ROB_Stalls_Percent_0_Bucket_4: 17761
Non-critical_ROB_Stalls_Percent_0_Bucket_4: 2227
Critical_ROB_Stalls_Percent_0_Bucket_5: 9790
Non-critical_ROB_Stalls_Percent_0_Bucket_5: 1217
Critical_ROB_Stalls_Percent_0_Bucket_6: 17697
Non-critical_ROB_Stalls_Percent_0_Bucket_6: 1956
Critical_ROB_Stalls_Percent_1_Bucket_0: 1153915
Non-critical_ROB_Stalls_Percent_1_Bucket_0: 1344265
Critical_ROB_Stalls_Percent_1_Bucket_1: 496718
Non-critical_ROB_Stalls_Percent_1_Bucket_1: 193348
Critical_ROB_Stalls_Percent_1_Bucket_2: 186573
Non-critical_ROB_Stalls_Percent_1_Bucket_2: 36940
Critical_ROB_Stalls_Percent_1_Bucket_3: 51505
Non-critical_ROB_Stalls_Percent_1_Bucket_3: 4470
Critical_ROB_Stalls_Percent_1_Bucket_4: 18376
Non-critical_ROB_Stalls_Percent_1_Bucket_4: 1612
Critical_ROB_Stalls_Percent_1_Bucket_5: 9948
Non-critical_ROB_Stalls_Percent_1_Bucket_5: 1059
Critical_ROB_Stalls_Percent_1_Bucket_6: 18378
Non-critical_ROB_Stalls_Percent_1_Bucket_6: 1275
Critical_ROB_Stalls_Percent_2_Bucket_0: 1280331
Non-critical_ROB_Stalls_Percent_2_Bucket_0: 1217849
Critical_ROB_Stalls_Percent_2_Bucket_1: 538635
Non-critical_ROB_Stalls_Percent_2_Bucket_1: 151431
Critical_ROB_Stalls_Percent_2_Bucket_2: 193832
Non-critical_ROB_Stalls_Percent_2_Bucket_2: 29681
Critical_ROB_Stalls_Percent_2_Bucket_3: 51966
Non-critical_ROB_Stalls_Percent_2_Bucket_3: 4009
Critical_ROB_Stalls_Percent_2_Bucket_4: 18377
Non-critical_ROB_Stalls_Percent_2_Bucket_4: 1611
Critical_ROB_Stalls_Percent_2_Bucket_5: 9948
Non-critical_ROB_Stalls_Percent_2_Bucket_5: 1059
Critical_ROB_Stalls_Percent_2_Bucket_6: 18378
Non-critical_ROB_Stalls_Percent_2_Bucket_6: 1275
Critical_ROB_Stalls_Percent_3_Bucket_0: 1426542
Non-critical_ROB_Stalls_Percent_3_Bucket_0: 1071638
Critical_ROB_Stalls_Percent_3_Bucket_1: 564082
Non-critical_ROB_Stalls_Percent_3_Bucket_1: 125984
Critical_ROB_Stalls_Percent_3_Bucket_2: 197452
Non-critical_ROB_Stalls_Percent_3_Bucket_2: 26061
Critical_ROB_Stalls_Percent_3_Bucket_3: 52233
Non-critical_ROB_Stalls_Percent_3_Bucket_3: 3742
Critical_ROB_Stalls_Percent_3_Bucket_4: 18513
Non-critical_ROB_Stalls_Percent_3_Bucket_4: 1475
Critical_ROB_Stalls_Percent_3_Bucket_5: 9958
Non-critical_ROB_Stalls_Percent_3_Bucket_5: 1049
Critical_ROB_Stalls_Percent_3_Bucket_6: 18384
Non-critical_ROB_Stalls_Percent_3_Bucket_6: 1269
Critical_ROB_Stalls_Percent_4_Bucket_0: 1570154
Non-critical_ROB_Stalls_Percent_4_Bucket_0: 928026
Critical_ROB_Stalls_Percent_4_Bucket_1: 589933
Non-critical_ROB_Stalls_Percent_4_Bucket_1: 100133
Critical_ROB_Stalls_Percent_4_Bucket_2: 202957
Non-critical_ROB_Stalls_Percent_4_Bucket_2: 20556
Critical_ROB_Stalls_Percent_4_Bucket_3: 52942
Non-critical_ROB_Stalls_Percent_4_Bucket_3: 3033
Critical_ROB_Stalls_Percent_4_Bucket_4: 18704
Non-critical_ROB_Stalls_Percent_4_Bucket_4: 1284
Critical_ROB_Stalls_Percent_4_Bucket_5: 10001
Non-critical_ROB_Stalls_Percent_4_Bucket_5: 1006
Critical_ROB_Stalls_Percent_4_Bucket_6: 18384
Non-critical_ROB_Stalls_Percent_4_Bucket_6: 1269
Critical_ROB_Stalls_Percent_5_Bucket_0: 1713471
Non-critical_ROB_Stalls_Percent_5_Bucket_0: 784709
Critical_ROB_Stalls_Percent_5_Bucket_1: 614013
Non-critical_ROB_Stalls_Percent_5_Bucket_1: 76053
Critical_ROB_Stalls_Percent_5_Bucket_2: 210536
Non-critical_ROB_Stalls_Percent_5_Bucket_2: 12977
Critical_ROB_Stalls_Percent_5_Bucket_3: 53608
Non-critical_ROB_Stalls_Percent_5_Bucket_3: 2367
Critical_ROB_Stalls_Percent_5_Bucket_4: 18789
Non-critical_ROB_Stalls_Percent_5_Bucket_4: 1199
Critical_ROB_Stalls_Percent_5_Bucket_5: 10055
Non-critical_ROB_Stalls_Percent_5_Bucket_5: 952
Critical_ROB_Stalls_Percent_5_Bucket_6: 18424
Non-critical_ROB_Stalls_Percent_5_Bucket_6: 1229
Critical_ROB_Stalls_Percent_6_Bucket_0: 1868305
Non-critical_ROB_Stalls_Percent_6_Bucket_0: 629875
Critical_ROB_Stalls_Percent_6_Bucket_1: 632449
Non-critical_ROB_Stalls_Percent_6_Bucket_1: 57617
Critical_ROB_Stalls_Percent_6_Bucket_2: 213011
Non-critical_ROB_Stalls_Percent_6_Bucket_2: 10502
Critical_ROB_Stalls_Percent_6_Bucket_3: 53702
Non-critical_ROB_Stalls_Percent_6_Bucket_3: 2273
Critical_ROB_Stalls_Percent_6_Bucket_4: 18850
Non-critical_ROB_Stalls_Percent_6_Bucket_4: 1138
Critical_ROB_Stalls_Percent_6_Bucket_5: 10266
Non-critical_ROB_Stalls_Percent_6_Bucket_5: 741
Critical_ROB_Stalls_Percent_6_Bucket_6: 18475
Non-critical_ROB_Stalls_Percent_6_Bucket_6: 1178
Critical_ROB_Stalls_Percent_7_Bucket_0: 2023244
Non-critical_ROB_Stalls_Percent_7_Bucket_0: 474936
Critical_ROB_Stalls_Percent_7_Bucket_1: 649810
Non-critical_ROB_Stalls_Percent_7_Bucket_1: 40256
Critical_ROB_Stalls_Percent_7_Bucket_2: 215451
Non-critical_ROB_Stalls_Percent_7_Bucket_2: 8062
Critical_ROB_Stalls_Percent_7_Bucket_3: 54237
Non-critical_ROB_Stalls_Percent_7_Bucket_3: 1738
Critical_ROB_Stalls_Percent_7_Bucket_4: 19053
Non-critical_ROB_Stalls_Percent_7_Bucket_4: 935
Critical_ROB_Stalls_Percent_7_Bucket_5: 10356
Non-critical_ROB_Stalls_Percent_7_Bucket_5: 651
Critical_ROB_Stalls_Percent_7_Bucket_6: 18607
Non-critical_ROB_Stalls_Percent_7_Bucket_6: 1046
Critical_ROB_Stalls_Percent_8_Bucket_0: 2186837
Non-critical_ROB_Stalls_Percent_8_Bucket_0: 311343
Critical_ROB_Stalls_Percent_8_Bucket_1: 659859
Non-critical_ROB_Stalls_Percent_8_Bucket_1: 30207
Critical_ROB_Stalls_Percent_8_Bucket_2: 217424
Non-critical_ROB_Stalls_Percent_8_Bucket_2: 6089
Critical_ROB_Stalls_Percent_8_Bucket_3: 54394
Non-critical_ROB_Stalls_Percent_8_Bucket_3: 1581
Critical_ROB_Stalls_Percent_8_Bucket_4: 19060
Non-critical_ROB_Stalls_Percent_8_Bucket_4: 928
Critical_ROB_Stalls_Percent_8_Bucket_5: 10356
Non-critical_ROB_Stalls_Percent_8_Bucket_5: 651
Critical_ROB_Stalls_Percent_8_Bucket_6: 18607
Non-critical_ROB_Stalls_Percent_8_Bucket_6: 1046
Average ROB occupancy Load Stall Begin: 36.7224
Average ROB occupancy Load Stall End: 44.7023
Min ROB occupancy Load Stall Begin: 1
Max ROB occupancy Load Stall Begin: 352
Min ROB occupancy Load Stall End: 1
Max ROB occupancy Load Stall End: 352
Average ROB occupancy Critical Load Stall Begin: 141.455
Average ROB occupancy Critical Load Stall End: 152.512
Min ROB occupancy Critical Load Stall Begin: 5
Max ROB occupancy Critical Load Stall Begin: 352
Min ROB occupancy Critical Load Stall End: 5
Max ROB occupancy Critical Load Stall End: 352
 ROB Load Stall Begin Bucket Count 0: 2731835
 ROB Load Stall End Bucket Count 0: 2498180
 ROB Critical Load Stall Begin Bucket Count 0: 3189
 ROB Critical Load Stall End Bucket Count 0: 2483
 ROB Load Stall Begin Bucket Count 1: 530713
 ROB Load Stall End Bucket Count 1: 690066
 ROB Critical Load Stall Begin Bucket Count 1: 57523
 ROB Critical Load Stall End Bucket Count 1: 51068
 ROB Load Stall Begin Bucket Count 2: 168199
 ROB Load Stall End Bucket Count 2: 223513
 ROB Critical Load Stall Begin Bucket Count 2: 19801
 ROB Critical Load Stall End Bucket Count 2: 24081
 ROB Load Stall Begin Bucket Count 3: 42477
 ROB Load Stall End Bucket Count 3: 55975
 ROB Critical Load Stall Begin Bucket Count 3: 6126
 ROB Critical Load Stall End Bucket Count 3: 8300
 ROB Load Stall Begin Bucket Count 4: 16934
 ROB Load Stall End Bucket Count 4: 19988
 ROB Critical Load Stall Begin Bucket Count 4: 5481
 ROB Critical Load Stall End Bucket Count 4: 5708
 ROB Load Stall Begin Bucket Count 5: 10132
 ROB Load Stall End Bucket Count 5: 11007
 ROB Critical Load Stall Begin Bucket Count 5: 5063
 ROB Critical Load Stall End Bucket Count 5: 5075
 ROB Load Stall Begin Bucket Count 6: 18092
 ROB Load Stall End Bucket Count 6: 19653
 ROB Critical Load Stall Begin Bucket Count 6: 15286
 ROB Critical Load Stall End Bucket Count 6: 15754
PIST Tag Read Accesses: 2336804
PIST Read Accesses: 1168402
PIST Tag Write Accesses: 2336804
PIST Write Accesses: 1168402
Criticality detector called times: 3405913
Max global_stall_cycles_count: 1969723
Threshold Modified: 1 times, factor: -1
Sturdy critical IP cache stats: 
 Unused entries: 0
CIC Tag Read Accesses: 0
CIC Read Accesses: 0
CIC Tag Write Accesses: 0
CIC Write Accesses: 0
Wobbly critical IP cache stats: 
 Unused entries: 125
CIC Tag Read Accesses: 85656941
CIC Read Accesses: 0
CIC Tag Write Accesses: 3
CIC Write Accesses: 0
ITLB TOTAL     ACCESS:   10097307  HIT:    9430208  MISS:     667099  HIT %:    93.3933  MISS %:     6.6067   MPKI: 13.342
ITLB LOAD TRANSLATION ACCESS:    8115039  HIT:    8023382  MISS:      91657  HIT %:    98.8705  MISS %:    1.12947   MPKI: 1.83314
ITLB TRANSLATION FROM L1D PREFETCHER ACCESS:    1982268  HIT:    1406826  MISS:     575442  HIT %:    70.9705  MISS %:    29.0295   MPKI: 11.5088
ITLBprefetch_cycle_count: 0 prefetches_per_prefetch_cycle: -nan
ITLB PREFETCH  REQUESTED:          0  ISSUED:          0  USEFUL:     458581  USELESS:     116861
ITLB USEFUL LOAD PREFETCHES:     458581 PREFETCH ISSUED TO LOWER LEVEL:          0  ACCURACY: inf
ITLB TIMELY PREFETCHES:     458581 LATE PREFETCHES: 390 DROPPED PREFETCHES: 3828
ITLB PREFETCHES SAME FILL-ORIGIN LEVEL: 0 DIFFERENT FILL-ORIGIN LEVEL: 0
ITLB AVERAGE MISS LATENCY: 25700.4 cycles
ITLB RQ	ACCESS:   15160498	FORWARD:          0	MERGED:    5015629	TO_CACHE:   10144869

DTLB TOTAL     ACCESS:   11551250  HIT:   11073884  MISS:     477366  HIT %:    95.8674  MISS %:    4.13259   MPKI: 9.54732
DTLB LOAD TRANSLATION ACCESS:   11551250  HIT:   11073884  MISS:     477366  HIT %:    95.8674  MISS %:    4.13259   MPKI: 9.54732
DTLBprefetch_cycle_count: 0 prefetches_per_prefetch_cycle: -nan
DTLB PREFETCH  REQUESTED:          0  ISSUED:          0  USEFUL:          0  USELESS:          0
DTLB USEFUL LOAD PREFETCHES:          0 PREFETCH ISSUED TO LOWER LEVEL:          0  ACCURACY: -nan
DTLB TIMELY PREFETCHES:          0 LATE PREFETCHES: 0 DROPPED PREFETCHES: 0
DTLB PREFETCHES SAME FILL-ORIGIN LEVEL: 0 DIFFERENT FILL-ORIGIN LEVEL: 0
DTLB AVERAGE MISS LATENCY: 9.2305 cycles
DTLB RQ	ACCESS:   15018201	FORWARD:          0	MERGED:    3440959	TO_CACHE:   11577242

STLB TOTAL     ACCESS:    1144465  HIT:    1142382  MISS:       2083  HIT %:     99.818  MISS %:   0.182006   MPKI: 0.04166
STLB LOAD TRANSLATION ACCESS:     568633  HIT:     566635  MISS:       1998  HIT %:    99.6486  MISS %:   0.351369   MPKI: 0.03996
STLB TRANSLATION FROM L1D PREFETCHER ACCESS:     575832  HIT:     575747  MISS:         85  HIT %:    99.9852  MISS %:  0.0147612   MPKI: 0.0017
STLBprefetch_cycle_count: 0 prefetches_per_prefetch_cycle: -nan
STLB PREFETCH  REQUESTED:          0  ISSUED:          0  USEFUL:         77  USELESS:          8
STLB USEFUL LOAD PREFETCHES:         77 PREFETCH ISSUED TO LOWER LEVEL:          0  ACCURACY: inf
STLB TIMELY PREFETCHES:         77 LATE PREFETCHES: 0 DROPPED PREFETCHES: 3828
STLB PREFETCHES SAME FILL-ORIGIN LEVEL: 0 DIFFERENT FILL-ORIGIN LEVEL: 0
STLB AVERAGE MISS LATENCY: 52.9698 cycles
STLB RQ	ACCESS:    1148293	FORWARD:          0	MERGED:          0	TO_CACHE:    1148293

STLB Hit, L1D data hit: 0
STLB Hit, L2C data hit: 0
STLB Hit, LLC data hit: 0
STLB Hit, LLC data miss: 0
STLB STLB hints to L2: 0
L1D TOTAL     ACCESS:   14506198  HIT:   13442520  MISS:    1063678  HIT %:    92.6674  MISS %:    7.33258   MPKI: 21.2736
L1D LOAD      ACCESS:    8156193  HIT:    7383841  MISS:     772352  HIT %:    90.5305  MISS %:    9.46952   MPKI: 15.447
L1D RFO       ACCESS:    6350005  HIT:    6058679  MISS:     291326  HIT %:    95.4122  MISS %:    4.58781   MPKI: 5.82652
L1Dprefetch_cycle_count: 0 prefetches_per_prefetch_cycle: -nan
L1D PREFETCH  REQUESTED:          0  ISSUED:          0  USEFUL:          0  USELESS:          0
L1D USEFUL LOAD PREFETCHES:          0 PREFETCH ISSUED TO LOWER LEVEL:          0  ACCURACY: -nan
L1D TIMELY PREFETCHES:          0 LATE PREFETCHES: 0 DROPPED PREFETCHES: 0
L1D PREFETCHES SAME FILL-ORIGIN LEVEL: 0 DIFFERENT FILL-ORIGIN LEVEL: 0
L1D AVERAGE MISS LATENCY: 23.3759 cycles
L1D RQ	ACCESS:   11657909	FORWARD:          0	MERGED:    3332470	TO_CACHE:    8187188
L1D WQ	ACCESS:    6901339	FORWARD:     138251	MERGED:      70326	TO_CACHE:    6831013

L1D UNIQUE REGIONS ACCESSED: 0
L1D REGIONS CONFLICTS: 0
L1D Cross Page Prefetch Requests: 0
L1D Same Page Prefetch Requests: 0
L1D ROI Sum of L1D PQ occupancy: 0
L1D PREFETCHES PUSHED FROM L2C: 0
L1I TOTAL     ACCESS:   15012988  HIT:   10905602  MISS:    4107386  HIT %:    72.6411  MISS %:    27.3589   MPKI: 82.1477
L1I LOAD      ACCESS:    9556998  HIT:    9281989  MISS:     275009  HIT %:    97.1224  MISS %:    2.87757   MPKI: 5.50018
L1I PREFETCH  ACCESS:    5455990  HIT:    1623613  MISS:    3832377  HIT %:    29.7584  MISS %:    70.2416   MPKI: 76.6475
L1Iprefetch_cycle_count: 0 prefetches_per_prefetch_cycle: inf
L1I PREFETCH  REQUESTED:    5706261  ISSUED:    5695770  USEFUL:    2596493  USELESS:    1235909
L1I USEFUL LOAD PREFETCHES:    2596493 PREFETCH ISSUED TO LOWER LEVEL:    3862503  ACCURACY: 67.2231
L1I TIMELY PREFETCHES:    2596493 LATE PREFETCHES: 29486 DROPPED PREFETCHES: 9257
L1I PREFETCHES SAME FILL-ORIGIN LEVEL: 3862503 DIFFERENT FILL-ORIGIN LEVEL: 0
L1I AVERAGE MISS LATENCY: 391047 cycles
L1I RQ	ACCESS:   13496531	FORWARD:          0	MERGED:    3916615	TO_CACHE:    9579916
L1I PQ	ACCESS:    5695770	FORWARD:          0	MERGED:     115188	TO_CACHE:    5580582

BTB TOTAL     ACCESS:    5981441  HIT:    3992143  MISS:    1989298  HIT %:    66.7422  MISS %:    33.2578   MPKI: 39.786
BTB BRANCH_DIRECT_JUMP	ACCESS:     522043  HIT:     347789  MISS:     174254
BTB BRANCH_INDIRECT	ACCESS:     204034  HIT:     166604  MISS:      37430
BTB BRANCH_CONDITIONAL	ACCESS:    3043077  HIT:    2486506  MISS:     556571
BTB BRANCH_DIRECT_CALL	ACCESS:     932385  HIT:     529353  MISS:     403032
BTB BRANCH_INDIRECT_CALL	ACCESS:     173762  HIT:      95752  MISS:      78010
BTB BRANCH_RETURN	ACCESS:    1106140  HIT:     366139  MISS:     740001
BTB BRANCH_OTHER ACCESS:          0  HIT:          0  MISS:          0

L2C TOTAL     ACCESS:    5708131  HIT:    5143440  MISS:     564691  HIT %:    90.1073  MISS %:    9.89275   MPKI: 11.2938
L2C LOAD      ACCESS:    1017789  HIT:     850653  MISS:     167136  HIT %:    83.5785  MISS %:    16.4215   MPKI: 3.34272
L2C DATA LOAD MPKI: 2.6443
L2C INSTRUCTION LOAD MPKI: 0.69842
L2C RFO       ACCESS:     291325  HIT:     219702  MISS:      71623  HIT %:    75.4147  MISS %:    24.5853   MPKI: 1.43246
L2C PREFETCH  ACCESS:    3878739  HIT:    3582628  MISS:     296111  HIT %:    92.3658  MISS %:    7.63421   MPKI: 5.92222
L2C DATA PREFETCH MPKI: 0.08346
L2C INSTRUCTION PREFETCH MPKI: 5.83876
L2C WRITEBACK ACCESS:     511525  HIT:     483274  MISS:      28251  HIT %:    94.4771  MISS %:     5.5229   MPKI: 0.56502
L2C LOAD TRANSLATION ACCESS:       2101  HIT:        713  MISS:       1388  HIT %:    33.9362  MISS %:    66.0638   MPKI: 0.02776
L2C TRANSLATION FROM L1D PREFETCHER ACCESS:       6652  HIT:       6470  MISS:        182  HIT %:     97.264  MISS %:    2.73602   MPKI: 0.00364
L2Cprefetch_cycle_count: 5467 prefetches_per_prefetch_cycle: 3.23395
L2C PREFETCH  REQUESTED:      17680  ISSUED:      17680  USEFUL:       9597  USELESS:     286766
L2C USEFUL LOAD PREFETCHES:       9597 PREFETCH ISSUED TO LOWER LEVEL:     296556  ACCURACY: 3.23615
L2C TIMELY PREFETCHES:       9597 LATE PREFETCHES: 445 DROPPED PREFETCHES: 0
L2C PREFETCHES SAME FILL-ORIGIN LEVEL: 4618 DIFFERENT FILL-ORIGIN LEVEL: 0
L2C AVERAGE MISS LATENCY: 33.8119 cycles
L2C RQ	ACCESS:    1317954	FORWARD:          0	MERGED:          0	TO_CACHE:    1317867
L2C WQ	ACCESS:     511525	FORWARD:         87	MERGED:          0	TO_CACHE:     511525
L2C PQ	ACCESS:    3879542	FORWARD:          0	MERGED:          0	TO_CACHE:    3879542

L2C Instructions Evicting Data 123947
L2C Translations Evicting Data 975
L2C Data Evicting Data 99874
L2C Instructions Evicting Instructions 202369
L2C Translations Evicting Instructions 533
L2C Data Evicting Instructions 107188
L2C Instructions Evicting Translations 543
L2C Translations Evicting Translations 62
L2C Data Evicting Translations 949
L2C Dense regions hint from L2: 0
PSCL5 TOTAL     ACCESS:       5911  HIT:       5911  MISS:          0  HIT %:        100  MISS %:          0   MPKI: 0
PSCL5 LOAD TRANSLATION ACCESS:       1998  HIT:       1998  MISS:          0  HIT %:        100  MISS %:          0   MPKI: 0
PSCL5 TRANSLATION FROM L1D PREFETCHER ACCESS:       3913  HIT:       3913  MISS:          0  HIT %:        100  MISS %:          0   MPKI: 0
PSCL5prefetch_cycle_count: 0 prefetches_per_prefetch_cycle: -nan
PSCL5 PREFETCH  REQUESTED:          0  ISSUED:          0  USEFUL:          0  USELESS:          0
PSCL5 USEFUL LOAD PREFETCHES:          0 PREFETCH ISSUED TO LOWER LEVEL:          0  ACCURACY: -nan
PSCL5 TIMELY PREFETCHES:          0 LATE PREFETCHES: 0 DROPPED PREFETCHES: 0
PSCL5 PREFETCHES SAME FILL-ORIGIN LEVEL: 0 DIFFERENT FILL-ORIGIN LEVEL: 0

PSCL4 TOTAL     ACCESS:       5805  HIT:       5798  MISS:          7  HIT %:    99.8794  MISS %:   0.120586   MPKI: 0.00014
PSCL4 LOAD TRANSLATION ACCESS:       1911  HIT:       1904  MISS:          7  HIT %:    99.6337  MISS %:     0.3663   MPKI: 0.00014
PSCL4 TRANSLATION FROM L1D PREFETCHER ACCESS:       3894  HIT:       3894  MISS:          0  HIT %:        100  MISS %:          0   MPKI: 0
PSCL4prefetch_cycle_count: 0 prefetches_per_prefetch_cycle: -nan
PSCL4 PREFETCH  REQUESTED:          0  ISSUED:          0  USEFUL:          0  USELESS:          0
PSCL4 USEFUL LOAD PREFETCHES:          0 PREFETCH ISSUED TO LOWER LEVEL:          0  ACCURACY: -nan
PSCL4 TIMELY PREFETCHES:          0 LATE PREFETCHES: 0 DROPPED PREFETCHES: 0
PSCL4 PREFETCHES SAME FILL-ORIGIN LEVEL: 0 DIFFERENT FILL-ORIGIN LEVEL: 0

PSCL3 TOTAL     ACCESS:       5839  HIT:       5832  MISS:          7  HIT %:    99.8801  MISS %:   0.119884   MPKI: 0.00014
PSCL3 LOAD TRANSLATION ACCESS:       1945  HIT:       1938  MISS:          7  HIT %:    99.6401  MISS %:   0.359897   MPKI: 0.00014
PSCL3 TRANSLATION FROM L1D PREFETCHER ACCESS:       3894  HIT:       3894  MISS:          0  HIT %:        100  MISS %:          0   MPKI: 0
PSCL3prefetch_cycle_count: 0 prefetches_per_prefetch_cycle: -nan
PSCL3 PREFETCH  REQUESTED:          0  ISSUED:          0  USEFUL:          0  USELESS:          0
PSCL3 USEFUL LOAD PREFETCHES:          0 PREFETCH ISSUED TO LOWER LEVEL:          0  ACCURACY: -nan
PSCL3 TIMELY PREFETCHES:          0 LATE PREFETCHES: 0 DROPPED PREFETCHES: 0
PSCL3 PREFETCHES SAME FILL-ORIGIN LEVEL: 0 DIFFERENT FILL-ORIGIN LEVEL: 0

PSCL2 TOTAL     ACCESS:       3192  HIT:       3086  MISS:        106  HIT %:    96.6792  MISS %:     3.3208   MPKI: 0.00212
PSCL2 LOAD TRANSLATION ACCESS:       2012  HIT:       1906  MISS:        106  HIT %:    94.7316  MISS %:    5.26839   MPKI: 0.00212
PSCL2 TRANSLATION FROM L1D PREFETCHER ACCESS:       1180  HIT:       1180  MISS:          0  HIT %:        100  MISS %:          0   MPKI: 0
PSCL2prefetch_cycle_count: 0 prefetches_per_prefetch_cycle: -nan
PSCL2 PREFETCH  REQUESTED:          0  ISSUED:          0  USEFUL:          0  USELESS:          0
PSCL2 USEFUL LOAD PREFETCHES:          0 PREFETCH ISSUED TO LOWER LEVEL:          0  ACCURACY: -nan
PSCL2 TIMELY PREFETCHES:          0 LATE PREFETCHES: 0 DROPPED PREFETCHES: 0
PSCL2 PREFETCHES SAME FILL-ORIGIN LEVEL: 0 DIFFERENT FILL-ORIGIN LEVEL: 0

LLC TOTAL     ACCESS:     639107  HIT:     621182  MISS:      17925  HIT %:    97.1953  MISS %:    2.80469   MPKI: 0.3585
LLC LOAD      ACCESS:     166690  HIT:     159934  MISS:       6756  HIT %:     95.947  MISS %:    4.05303   MPKI: 0.13512
LLC RFO       ACCESS:      71622  HIT:      61950  MISS:       9672  HIT %:    86.4958  MISS %:    13.5042   MPKI: 0.19344
LLC PREFETCH  ACCESS:     296556  HIT:     295326  MISS:       1230  HIT %:    99.5852  MISS %:   0.414761   MPKI: 0.0246
LLC WRITEBACK ACCESS:     102669  HIT:     102471  MISS:        198  HIT %:    99.8071  MISS %:   0.192853   MPKI: 0.00396
LLC LOAD TRANSLATION ACCESS:       1388  HIT:       1330  MISS:         58  HIT %:    95.8213  MISS %:    4.17867   MPKI: 0.00116
LLC TRANSLATION FROM L1D PREFETCHER ACCESS:        182  HIT:        171  MISS:         11  HIT %:     93.956  MISS %:    6.04396   MPKI: 0.00022
LLCprefetch_cycle_count: 0 prefetches_per_prefetch_cycle: -nan
LLC PREFETCH  REQUESTED:          0  ISSUED:          0  USEFUL:        100  USELESS:        829
LLC USEFUL LOAD PREFETCHES:        100 PREFETCH ISSUED TO LOWER LEVEL:       1230  ACCURACY: 8.13008
LLC TIMELY PREFETCHES:        100 LATE PREFETCHES: 0 DROPPED PREFETCHES: 0
LLC PREFETCHES SAME FILL-ORIGIN LEVEL: 0 DIFFERENT FILL-ORIGIN LEVEL: 0
LLC AVERAGE MISS LATENCY: 168.882 cycles
LLC RQ	ACCESS:     239884	FORWARD:          0	MERGED:          0	TO_CACHE:     239882
LLC WQ	ACCESS:     102669	FORWARD:          2	MERGED:          0	TO_CACHE:     102669
LLC PQ	ACCESS:     296556	FORWARD:          0	MERGED:          0	TO_CACHE:     296556

LLC Dense regions hint to LLC: 0

RAW hits: 957911
Loads Generated: 12615820
Loads sent to L1D: 11657909
Stores Generated: 6901350
Stores sent to L1D: 6901339
Major fault: 0 Minor fault: 2264
Allocated PAGES: 2264
I-Shadow cache 408 bytes
Touched + WorthPF tables 6144 bytes 
MMA filter 174 bytes 
FNL filter 272 bytes 
TOTAL PREFETCHER STORAGE SIZE: 25174 bytes
CPU 0 L1I next line prefetcher final stats
total_pref_operate_instances_l2: 3595158
dynamic_config_counter_instances_l2_1: 3527577
dynamic_config_counter_instances_l2_2: 34514
dynamic_config_counter_instances_l2_3: 33067
dynamic_config_counter_instances_l2_4: 0
dynamic_config_counter_instances_l2_5: 0
[Bingo] PHT Access: 9329
[Bingo] PHT Hit PC+Addr: 5082
[Bingo] PHT Hit PC+Offs: 624
[Bingo] PHT Miss: 3623
[Bingo] Prefetch PC+Addr: 0
[Bingo] Prefetch PC+Offs: 0
[Bingo] Useful PC+Addr: 0
[Bingo] Useful PC+Offs: 0
[Bingo] Useless PC+Addr: 0
[Bingo] Useless PC+Offs: 0
[Bingo] L1 Prefetch per Region: 0
[Bingo] L2 Prefetch per Region: 5.02156
[Bingo] L3 Prefetch per Region: 0
[Bingo] No Prefetch per Region: 26.9784
[Bingo] Number of Voters Mean: 5.29808
[Bingo] Number of Voters SD: 6.44647
PHT read accesses: 22918
PHT write accesses: 4908
AT read accesses: 28612
AT write accesses: 31713
FT read accesses: 15395
FT write accesses: 9329
PS read accesses: 11515
PS write accesses: 5706
PHT tag read accesses: 160198
PHT tag write accesses: 9990
AT tag read accesses: 9835161
AT tag write accesses: 33463
FT tag read accesses: 9596618
FT tag write accesses: 19764
PS tag read accesses: 769103
PS tag write accesses: 17221

DRAM Statistics
 CHANNEL 0
 RQ ROW_BUFFER_HIT:       6083  ROW_BUFFER_MISS:      11640
 DBUS_CONGESTED:          5
 WQ ROW_BUFFER_HIT:       1249  ROW_BUFFER_MISS:       8059  FULL:          0

 AVG_CONGESTED_CYCLE: 5
 All warmup complete: 2
Channel 0 Bank busy for read cycles: 0
Channel 0 Bank busy for write cycles: 0
Channel 0
Rank 0
0banks busy for read cycles: 79733257
0banks busy for write cycles: 2341
1banks busy for read cycles: 856926
1banks busy for write cycles: 324087
2banks busy for read cycles: 107706
2banks busy for write cycles: 100793
3banks busy for read cycles: 55472
3banks busy for write cycles: 58135
4banks busy for read cycles: 31266
4banks busy for write cycles: 44763
5banks busy for read cycles: 25253
5banks busy for write cycles: 36634
6banks busy for read cycles: 20722
6banks busy for write cycles: 32081
7banks busy for read cycles: 20782
7banks busy for write cycles: 37630
8banks busy for read cycles: 38849
8banks busy for write cycles: 80528

CPU 0 Branch Prediction Accuracy: 99.822% MPKI: 0.32584 Average ROB Occupancy at Mispredict: 74.7029
Branch types
NOT_BRANCH: 40848387 81.6968%
BRANCH_DIRECT_JUMP: 522043 1.04409%
BRANCH_INDIRECT: 204034 0.408068%
BRANCH_CONDITIONAL: 6212933 12.4259%
BRANCH_DIRECT_CALL: 932385 1.86477%
BRANCH_INDIRECT_CALL: 173762 0.347524%
BRANCH_RETURN: 1106140 2.21228%
BRANCH_OTHER: 0 0%

DRAM PAGES: 1048576
Allocated PAGES: 2264
