Initialize SIGNATURE TABLE
ST_SET: 1
ST_WAY: 256
ST_TAG_BIT: 16
ST_TAG_MASK: ffff

Initialize PATTERN TABLE
PT_SET: 512
PT_WAY: 4
SIG_DELTA_BIT: 7
C_SIG_BIT: 4
C_DELTA_BIT: 4

Initialize PREFETCH FILTER
FILTER_SET: 1024
MANA initialize 
tds: 2 tdm: 4
size MANA SINGLE: 25.5 KB
size MANA NULTIPLE: 9.875 KB
size HOBPT: 0.703125 KB
size SRQ: 0.0644531 KB
size SABs: 0.0402832 KB
size prefetch queue: 0.453125 KB
total: 36.636 KB

*** ChampSim Multicore Out-of-Order Simulator ***

Warmup Instructions: 50000000
Simulation Instructions: 50000000
Number of CPUs: 1
LLC sets: 2048
LLC ways: 16
Off-chip DRAM Size: 4096 MB Channels: 1 Width: 64-bit Data Rate: 6400 MT/s
CPU 0 runs ../IPC-traces//server_027.champsimtrace.xz
.xz
BTB has LRU replacement policy
ITLB has LRU replacement policy
DTLB has LRU replacement policy
STLB has LRU replacement policy
L1I has LRU replacement policy
L1D has LRU replacement policy
Initialize SRRIP state for L2C
Initialize DRRIP state for LLC
Heartbeat CPU 0 instructions: 10000000 cycles: 3009008 heartbeat IPC: 3.32335 cumulative IPC: 3.32335 (Simulation time: 0 hr 5 min 43 sec) 
Heartbeat CPU 0 instructions: 20000001 cycles: 6022791 heartbeat IPC: 3.31809 cumulative IPC: 3.32072 (Simulation time: 0 hr 9 min 42 sec) 
Heartbeat CPU 0 instructions: 30000002 cycles: 9034014 heartbeat IPC: 3.32091 cumulative IPC: 3.32078 (Simulation time: 0 hr 13 min 30 sec) 
Heartbeat CPU 0 instructions: 40000000 cycles: 12051416 heartbeat IPC: 3.31411 cumulative IPC: 3.31911 (Simulation time: 0 hr 16 min 55 sec) 
Heartbeat CPU 0 instructions: 50000003 cycles: 15066485 heartbeat IPC: 3.31667 cumulative IPC: 3.31862 (Simulation time: 0 hr 19 min 48 sec) 

Warmup complete CPU 0 instructions: 50000003 cycles: 15066485 (Simulation time: 0 hr 19 min 48 sec) 

Epoch all ip prefetch: 0, epoch id: 2
Epoch all ip prefetch: 1, epoch id: 3
Epoch all ip prefetch: 0, epoch id: 4
Epoch all ip prefetch: 0, epoch id: 5
Epoch all ip prefetch: 0, epoch id: 6
Epoch all ip prefetch: 0, epoch id: 7
Epoch all ip prefetch: 0, epoch id: 8
Epoch all ip prefetch: 0, epoch id: 9
Epoch all ip prefetch: 0, epoch id: 10
Epoch all ip prefetch: 0, epoch id: 11
Heartbeat CPU 0 instructions: 60000002 cycles: 32467484 heartbeat IPC: 0.57468 cumulative IPC: 0.57468 (Simulation time: 0 hr 23 min 21 sec) 
Epoch all ip prefetch: 0, epoch id: 12
Epoch all ip prefetch: 0, epoch id: 13
Epoch all ip prefetch: 0, epoch id: 14
Epoch all ip prefetch: 0, epoch id: 15
Epoch all ip prefetch: 0, epoch id: 16
Epoch all ip prefetch: 0, epoch id: 17
Epoch all ip prefetch: 0, epoch id: 18
Epoch all ip prefetch: 0, epoch id: 19
Epoch all ip prefetch: 0, epoch id: 20
Epoch all ip prefetch: 0, epoch id: 21
Heartbeat CPU 0 instructions: 70000001 cycles: 49707370 heartbeat IPC: 0.58005 cumulative IPC: 0.577352 (Simulation time: 0 hr 26 min 48 sec) 
Epoch all ip prefetch: 0, epoch id: 22
Epoch all ip prefetch: 0, epoch id: 23
Epoch all ip prefetch: 0, epoch id: 24
Epoch all ip prefetch: 0, epoch id: 25
Epoch all ip prefetch: 0, epoch id: 26
Epoch all ip prefetch: 0, epoch id: 27
Epoch all ip prefetch: 0, epoch id: 28
Epoch all ip prefetch: 0, epoch id: 29
Epoch all ip prefetch: 0, epoch id: 30
Epoch all ip prefetch: 0, epoch id: 31
Heartbeat CPU 0 instructions: 80000002 cycles: 66946215 heartbeat IPC: 0.580085 cumulative IPC: 0.57826 (Simulation time: 0 hr 30 min 16 sec) 
Epoch all ip prefetch: 0, epoch id: 32
Epoch all ip prefetch: 0, epoch id: 33
Epoch all ip prefetch: 0, epoch id: 34
Epoch all ip prefetch: 0, epoch id: 35
Epoch all ip prefetch: 0, epoch id: 36
Epoch all ip prefetch: 0, epoch id: 37
Epoch all ip prefetch: 0, epoch id: 38
Epoch all ip prefetch: 0, epoch id: 39
Epoch all ip prefetch: 0, epoch id: 40
Epoch all ip prefetch: 0, epoch id: 41
Heartbeat CPU 0 instructions: 90000000 cycles: 84318482 heartbeat IPC: 0.57563 cumulative IPC: 0.577601 (Simulation time: 0 hr 33 min 44 sec) 
Epoch all ip prefetch: 0, epoch id: 42
Epoch all ip prefetch: 0, epoch id: 43
Epoch all ip prefetch: 0, epoch id: 44
Epoch all ip prefetch: 0, epoch id: 45
Epoch all ip prefetch: 0, epoch id: 46
Epoch all ip prefetch: 0, epoch id: 47
Epoch all ip prefetch: 0, epoch id: 48
Epoch all ip prefetch: 0, epoch id: 49
Epoch all ip prefetch: 0, epoch id: 50
Epoch all ip prefetch: 0, epoch id: 51
Heartbeat CPU 0 instructions: 100000002 cycles: 101447052 heartbeat IPC: 0.58382 cumulative IPC: 0.578834 (Simulation time: 0 hr 36 min 39 sec) 
Finished CPU 0 instructions: 50000003 cycles: 86380568 cumulative IPC: 0.578834 (Simulation time: 0 hr 36 min 39 sec) 

ChampSim completed all CPUs

Region of Interest Statistics

CPU 0 cumulative IPC: 0.578834 instructions: 50000003 cycles: 86380568

CPU 0 Average Load ROB stall cycles: 3.29434
CPU 0 Fraction of times ROB stalled by Loads: 27.1264
CPU 0 Percentage of Load stall cycles in Total stall cycles: 50.2444
CPU 0 NUM of IPS identified critical: 0

Average ROB occupancy Load Stall Begin: 33.4953
Average ROB occupancy Load Stall End: 40.3179
Min ROB occupancy Load Stall Begin: 1
Max ROB occupancy Load Stall Begin: 351
Min ROB occupancy Load Stall End: 1
Max ROB occupancy Load Stall End: 352
Average ROB occupancy Critical Load Stall Begin: -nan
Average ROB occupancy Critical Load Stall End: -nan
Min ROB occupancy Critical Load Stall Begin: 400
Max ROB occupancy Critical Load Stall Begin: 0
Min ROB occupancy Critical Load Stall End: 400
Max ROB occupancy Critical Load Stall End: 0
 ROB Load Stall Begin Bucket Count 0: 2091831
 ROB Load Stall End Bucket Count 0: 1965433
 ROB Critical Load Stall Begin Bucket Count 0: 0
 ROB Critical Load Stall End Bucket Count 0: 0
 ROB Load Stall Begin Bucket Count 1: 294708
 ROB Load Stall End Bucket Count 1: 380253
 ROB Critical Load Stall Begin Bucket Count 1: 0
 ROB Critical Load Stall End Bucket Count 1: 0
 ROB Load Stall Begin Bucket Count 2: 105905
 ROB Load Stall End Bucket Count 2: 135138
 ROB Critical Load Stall Begin Bucket Count 2: 0
 ROB Critical Load Stall End Bucket Count 2: 0
 ROB Load Stall Begin Bucket Count 3: 28830
 ROB Load Stall End Bucket Count 3: 37707
 ROB Critical Load Stall Begin Bucket Count 3: 0
 ROB Critical Load Stall End Bucket Count 3: 0
 ROB Load Stall Begin Bucket Count 4: 11085
 ROB Load Stall End Bucket Count 4: 12607
 ROB Critical Load Stall Begin Bucket Count 4: 0
 ROB Critical Load Stall End Bucket Count 4: 0
 ROB Load Stall Begin Bucket Count 5: 7246
 ROB Load Stall End Bucket Count 5: 7454
 ROB Critical Load Stall Begin Bucket Count 5: 0
 ROB Critical Load Stall End Bucket Count 5: 0
 ROB Load Stall Begin Bucket Count 6: 16105
 ROB Load Stall End Bucket Count 6: 17118
 ROB Critical Load Stall Begin Bucket Count 6: 0
 ROB Critical Load Stall End Bucket Count 6: 0
Threshold Modified: 1 times, factor: -1
Sturdy critical IP cache stats: 
 Unused entries: 125
Wobbly critical IP cache stats: 
 Unused entries: 256
ITLB TOTAL     ACCESS:   12300174  HIT:   11440035  MISS:     860139  HIT %:    93.0071  MISS %:     6.9929   MPKI: 17.2028
ITLB LOAD TRANSLATION ACCESS:    8134664  HIT:    7937101  MISS:     197563  HIT %:    97.5713  MISS %:    2.42866   MPKI: 3.95126
ITLB TRANSLATION FROM L1D PREFETCHER ACCESS:    4165510  HIT:    3502934  MISS:     662576  HIT %:    84.0938  MISS %:    15.9062   MPKI: 13.2515
ITLB AVERAGE MISS LATENCY: 1.03115e+06 cycles
ITLB RQ	ACCESS:   21051141	FORWARD:          0	MERGED:    8542603	TO_CACHE:   12508538

DTLB TOTAL     ACCESS:   11749643  HIT:   11275239  MISS:     474404  HIT %:    95.9624  MISS %:     4.0376   MPKI: 9.48808
DTLB LOAD TRANSLATION ACCESS:   11749643  HIT:   11275239  MISS:     474404  HIT %:    95.9624  MISS %:     4.0376   MPKI: 9.48808
DTLB AVERAGE MISS LATENCY: 9.33713 cycles
DTLB RQ	ACCESS:   15159242	FORWARD:          0	MERGED:    3384901	TO_CACHE:   11774341

STLB TOTAL     ACCESS:    1334543  HIT:    1332425  MISS:       2118  HIT %:    99.8413  MISS %:   0.158706   MPKI: 0.04236
STLB LOAD TRANSLATION ACCESS:     656935  HIT:     654886  MISS:       2049  HIT %:    99.6881  MISS %:   0.311903   MPKI: 0.04098
STLB TRANSLATION FROM L1D PREFETCHER ACCESS:     677608  HIT:     677539  MISS:         69  HIT %:    99.9898  MISS %:  0.0101829   MPKI: 0.00138
STLB AVERAGE MISS LATENCY: 82.2153 cycles
STLB RQ	ACCESS:    1428161	FORWARD:          0	MERGED:          0	TO_CACHE:    1428161

STLB Hit, L1D data hit: 0
STLB Hit, L2C data hit: 0
STLB Hit, LLC data hit: 0
STLB Hit, LLC data miss: 0
STLB STLB hints to L2: 0
L1D TOTAL     ACCESS:   14667405  HIT:   13648906  MISS:    1018499  HIT %:     93.056  MISS %:    6.94396   MPKI: 20.37
L1D LOAD      ACCESS:    8253752  HIT:    7523790  MISS:     729962  HIT %:     91.156  MISS %:      8.844   MPKI: 14.5992
L1D RFO       ACCESS:    6413653  HIT:    6125116  MISS:     288537  HIT %:    95.5012  MISS %:    4.49879   MPKI: 5.77074
L1D AVERAGE MISS LATENCY: 22.5555 cycles
L1D RQ	ACCESS:   11742392	FORWARD:          0	MERGED:    3322123	TO_CACHE:    8282736
L1D WQ	ACCESS:    6942496	FORWARD:     137533	MERGED:      65990	TO_CACHE:    6876506

L1D UNIQUE REGIONS ACCESSED: 0
L1D REGIONS CONFLICTS: 0
L1D Cross Page Prefetch Requests: 0
L1D Same Page Prefetch Requests: 0
L1D ROI Sum of L1D PQ occupancy: 0
L1D PREFETCHES PUSHED FROM L2C: 0
L1I TOTAL     ACCESS:   20183107  HIT:   16369694  MISS:    3813413  HIT %:    81.1059  MISS %:    18.8941   MPKI: 76.2683
L1I LOAD      ACCESS:    9544791  HIT:    8687941  MISS:     856850  HIT %:    91.0229  MISS %:    8.97715   MPKI: 17.137
L1I PREFETCH  ACCESS:   10638316  HIT:    7681753  MISS:    2956563  HIT %:    72.2084  MISS %:    27.7916   MPKI: 59.1313
L1I PREFETCH  REQUESTED:   12664584  ISSUED:   12189794  USEFUL:    2008404  USELESS:     948113
L1I USEFUL LOAD PREFETCHES:    2008404 PREFETCH ISSUED TO LOWER LEVEL:    3105732  ACCURACY: 64.6677
L1I TIMELY PREFETCHES:    2008404 LATE PREFETCHES: 149082 DROPPED PREFETCHES: 94151
L1I AVERAGE MISS LATENCY: 2.28754e+06 cycles
L1I RQ	ACCESS:   13567633	FORWARD:          0	MERGED:    3925438	TO_CACHE:    9642195
L1I PQ	ACCESS:   12189794	FORWARD:          0	MERGED:     780848	TO_CACHE:   11408946

BTB TOTAL     ACCESS:    5988397  HIT:    3982739  MISS:    2005658  HIT %:    66.5076  MISS %:    33.4924   MPKI: 40.1132
BTB BRANCH_DIRECT_JUMP	ACCESS:     526633  HIT:     350330  MISS:     176303
BTB BRANCH_INDIRECT	ACCESS:     205902  HIT:     168509  MISS:      37393
BTB BRANCH_CONDITIONAL	ACCESS:    3029936  HIT:    2469493  MISS:     560443
BTB BRANCH_DIRECT_CALL	ACCESS:     938473  HIT:     531152  MISS:     407321
BTB BRANCH_INDIRECT_CALL	ACCESS:     174486  HIT:      95785  MISS:      78701
BTB BRANCH_RETURN	ACCESS:    1112967  HIT:     367470  MISS:     745497
BTB BRANCH_OTHER ACCESS:          0  HIT:          0  MISS:          0

L2C TOTAL     ACCESS:    6623214  HIT:    6278792  MISS:     344422  HIT %:    94.7998  MISS %:    5.20022   MPKI: 6.88844
L2C LOAD      ACCESS:    1437651  HIT:    1291237  MISS:     146414  HIT %:    89.8157  MISS %:    10.1843   MPKI: 2.92828
L2C DATA LOAD MPKI: 1.96622
L2C INSTRUCTION LOAD MPKI: 0.96206
L2C RFO       ACCESS:     288537  HIT:     238679  MISS:      49858  HIT %:    82.7204  MISS %:    17.2796   MPKI: 0.99716
L2C PREFETCH  ACCESS:    4291420  HIT:    4161703  MISS:     129717  HIT %:    96.9773  MISS %:    3.02271   MPKI: 2.59434
L2C DATA PREFETCH MPKI: 0.01256
L2C INSTRUCTION PREFETCH MPKI: 2.58178
L2C WRITEBACK ACCESS:     505224  HIT:     488414  MISS:      16810  HIT %:    96.6728  MISS %:    3.32724   MPKI: 0.3362
L2C LOAD TRANSLATION ACCESS:       2194  HIT:        644  MISS:       1550  HIT %:    29.3528  MISS %:    70.6472   MPKI: 0.031
L2C TRANSLATION FROM L1D PREFETCHER ACCESS:      98188  HIT:      98115  MISS:         73  HIT %:    99.9257  MISS %:  0.0743472   MPKI: 0.00146
L2C PREFETCH  REQUESTED:    4534160  ISSUED:    4534105  USEFUL:      16268  USELESS:     115113
L2C USEFUL LOAD PREFETCHES:      16268 PREFETCH ISSUED TO LOWER LEVEL:    1542128  ACCURACY: 1.05491
L2C TIMELY PREFETCHES:      16268 LATE PREFETCHES: 1830 DROPPED PREFETCHES: 0
L2C AVERAGE MISS LATENCY: 38.7177 cycles
L2C RQ	ACCESS:    1826649	FORWARD:          0	MERGED:          0	TO_CACHE:    1826570
L2C WQ	ACCESS:     505224	FORWARD:         92	MERGED:          0	TO_CACHE:     505224
L2C PQ	ACCESS:    7639750	FORWARD:          0	MERGED:    1925068	TO_CACHE:    5714669

L2C Instructions Evicting Data75939
L2C Translations Evicting Data1110
L2C Data Evicting Data80705
L2C Instructions Evicting Instructions100741
L2C Translations Evicting Instructions488
L2C Data Evicting Instructions67022
L2C Instructions Evicting Translations512
L2C Translations Evicting Translations25
L2C Data Evicting Translations1070
L2C Dense regions hint from L2: 0
PSCL5 TOTAL     ACCESS:      95736  HIT:      95736  MISS:          0  HIT %:        100  MISS %:          0   MPKI: 0
PSCL5 LOAD TRANSLATION ACCESS:       2049  HIT:       2049  MISS:          0  HIT %:        100  MISS %:          0   MPKI: 0
PSCL5 TRANSLATION FROM L1D PREFETCHER ACCESS:      93687  HIT:      93687  MISS:          0  HIT %:        100  MISS %:          0   MPKI: 0

PSCL4 TOTAL     ACCESS:      91035  HIT:      91018  MISS:         17  HIT %:    99.9813  MISS %:  0.0186741   MPKI: 0.00034
PSCL4 LOAD TRANSLATION ACCESS:       1875  HIT:       1858  MISS:         17  HIT %:    99.0933  MISS %:   0.906667   MPKI: 0.00034
PSCL4 TRANSLATION FROM L1D PREFETCHER ACCESS:      89160  HIT:      89160  MISS:          0  HIT %:        100  MISS %:          0   MPKI: 0

PSCL3 TOTAL     ACCESS:      91094  HIT:      91077  MISS:         17  HIT %:    99.9813  MISS %:   0.018662   MPKI: 0.00034
PSCL3 LOAD TRANSLATION ACCESS:       1934  HIT:       1917  MISS:         17  HIT %:     99.121  MISS %:   0.879007   MPKI: 0.00034
PSCL3 TRANSLATION FROM L1D PREFETCHER ACCESS:      89160  HIT:      89160  MISS:          0  HIT %:        100  MISS %:          0   MPKI: 0

PSCL2 TOTAL     ACCESS:      91430  HIT:      91294  MISS:        136  HIT %:    99.8513  MISS %:   0.148748   MPKI: 0.00272
PSCL2 LOAD TRANSLATION ACCESS:       2064  HIT:       1928  MISS:        136  HIT %:    93.4109  MISS %:    6.58915   MPKI: 0.00272
PSCL2 TRANSLATION FROM L1D PREFETCHER ACCESS:      89366  HIT:      89366  MISS:          0  HIT %:        100  MISS %:          0   MPKI: 0

LLC TOTAL     ACCESS:    1800554  HIT:    1767010  MISS:      33544  HIT %:     98.137  MISS %:    1.86298   MPKI: 0.67088
LLC LOAD      ACCESS:     144583  HIT:     137351  MISS:       7232  HIT %:     94.998  MISS %:    5.00197   MPKI: 0.14464
LLC RFO       ACCESS:      49858  HIT:      35320  MISS:      14538  HIT %:    70.8412  MISS %:    29.1588   MPKI: 0.29076
LLC PREFETCH  ACCESS:    1533865  HIT:    1522943  MISS:      10922  HIT %:    99.2879  MISS %:   0.712057   MPKI: 0.21844
LLC WRITEBACK ACCESS:      70625  HIT:      69990  MISS:        635  HIT %:    99.1009  MISS %:   0.899115   MPKI: 0.0127
LLC LOAD TRANSLATION ACCESS:       1550  HIT:       1350  MISS:        200  HIT %:    87.0968  MISS %:    12.9032   MPKI: 0.004
LLC TRANSLATION FROM L1D PREFETCHER ACCESS:         73  HIT:         56  MISS:         17  HIT %:    76.7123  MISS %:    23.2877   MPKI: 0.00034
LLC AVERAGE MISS LATENCY: 154.692 cycles
LLC RQ	ACCESS:     196065	FORWARD:          0	MERGED:          0	TO_CACHE:     196064
LLC WQ	ACCESS:      70625	FORWARD:          2	MERGED:          0	TO_CACHE:      70625
LLC PQ	ACCESS:    1542128	FORWARD:          0	MERGED:       2477	TO_CACHE:    1539650

LLC Dense regions hint to LLC: 0

RAW hits: 892352
Loads Generated: 12634744
Loads sent to L1D: 11742392
Stores Generated: 6942496
Stores sent to L1D: 6942496
Major fault: 0 Minor fault: 2582
Allocated PAGES: 2582



Printing Logs
statHeadFound: 2339304
statHeadMissing: 2860820
statStreamBufferHit: 10715294
statPrefetchEntryFound: 9117201
statCompactorMatch: 12414184
statStreamTrackerLookup: 15915418
statRecord: 3501234
statGetPointer: 5200124
statEnqueuePrefetch: 22974704
statPrefetchQueueIsFull: 43
StreamBufferHitRate: 0.673265
Regions' size: 2956
next_region_correct: 2282387
next_region_wrong: 1215883
next_region_correct_prediction: 0.652433
statStreamBufferLookups: 159154180
statL1iLookups: 183797632
statCompactorLookups: 254646688
------------------
Depth Distribution
------------------
depth 0: 0
depth 1: 7052536
depth 2: 1856680
depth 3: 81178
depth 4: 14866
depth 5: 7298
depth 6: 4226
depth 7: 2296
depth 8: 1254
depth 9: 394
depth 10: 4
depth 11: 2
depth 12: 2
depth 13: 0
depth 14: 0
depth 15: 0
depth 16: 0
depth 17: 0
depth 18: 0
depth 19: 0
depth 20: 0
depth 21: 0
depth 22: 0
depth 23: 0
depth 24: 0
depth 25: 0
depth 26: 0
depth 27: 0
depth 28: 0
depth 29: 0
Total: 9020736
-----------------------------
-----------------------------
	Captured at Filter
-----------------------------
depth 0: 0
depth 1: 112037
depth 2: 30139
depth 3: 5801
depth 4: 842
depth 5: 213
depth 6: 42
depth 7: 13
depth 8: 3
depth 9: 3
depth 10: 0
depth 11: 0
depth 12: 0
depth 13: 0
depth 14: 0
depth 15: 0
depth 16: 0
depth 17: 0
depth 18: 0
depth 19: 0
depth 20: 0
depth 21: 0
depth 22: 0
depth 23: 0
depth 24: 0
depth 25: 0
depth 26: 0
depth 27: 0
depth 28: 0
depth 29: 0
-----------------------------
-----------------------------
		Lost at Page
-----------------------------
depth 0: 0
depth 1: 129259
depth 2: 63798
depth 3: 6308
depth 4: 1688
depth 5: 856
depth 6: 530
depth 7: 327
depth 8: 214
depth 9: 78
depth 10: 3
depth 11: 1
depth 12: 1
depth 13: 0
depth 14: 0
depth 15: 0
depth 16: 0
depth 17: 0
depth 18: 0
depth 19: 0
depth 20: 0
depth 21: 0
depth 22: 0
depth 23: 0
depth 24: 0
depth 25: 0
depth 26: 0
depth 27: 0
depth 28: 0
depth 29: 0
-----------------------------
-----------------------------
	Lost due to PQ Size
-----------------------------
29729
-----------------------------
ST read accesses: 1800998387
ST write accesses: 238926669
PT read accesses: 48683093
PT write accesses: 4120007
FILTER read accesses: 8752115
FILTER write accesses: 374847
GHR read accesses: 5759950
GHR write accesses: 96251
GHR counter read accesses: 41376598
GHR counter write accesses: 3836818

DRAM Statistics
 CHANNEL 0
 RQ ROW_BUFFER_HIT:      10362  ROW_BUFFER_MISS:      22541
 DBUS_CONGESTED:        209
 WQ ROW_BUFFER_HIT:       1353  ROW_BUFFER_MISS:      14661  FULL:          0

 AVG_CONGESTED_CYCLE: 2

CPU 0 Branch Prediction Accuracy: 99.8082% MPKI: 0.35064 Average ROB Occupancy at Mispredict: 66.3682
Branch types
NOT_BRANCH: 40857498 81.715%
BRANCH_DIRECT_JUMP: 526633 1.05327%
BRANCH_INDIRECT: 205902 0.411804%
BRANCH_CONDITIONAL: 6184040 12.3681%
BRANCH_DIRECT_CALL: 938473 1.87695%
BRANCH_INDIRECT_CALL: 174486 0.348972%
BRANCH_RETURN: 1112967 2.22593%
BRANCH_OTHER: 0 0%

DRAM PAGES: 1048576
Allocated PAGES: 2582
