Initialize SIGNATURE TABLE
ST_SET: 1
ST_WAY: 256
ST_TAG_BIT: 16
ST_TAG_MASK: ffff

Initialize PATTERN TABLE
PT_SET: 512
PT_WAY: 4
SIG_DELTA_BIT: 7
C_SIG_BIT: 4
C_DELTA_BIT: 4

Initialize PREFETCH FILTER
FILTER_SET: 1024

*** ChampSim Multicore Out-of-Order Simulator ***

Warmup Instructions: 50000000
Simulation Instructions: 50000000
Number of CPUs: 1
LLC sets: 2048
LLC ways: 16
Off-chip DRAM Size: 4096 MB Channels: 1 Width: 64-bit Data Rate: 6400 MT/s
CPU 0 runs ../../IPC-traces//server_017.champsimtrace.xz
.xz
NUM_OF_IPS_IN_CRITICAL_IP_TRAINING: 64
NUM_OF_CRITICAL_IP_TRAINING_TABLE_WAYS: 2
NUM_OF_CRITICAL_IP_TRAINING_TABLE_SETS: 32
WOBBLY_CRITICAL_IP_CACHE_SETS: 32
WOBBLY_CRITICAL_IP_CACHE_WAYS: 4
BTB has LRU replacement policy
ITLB has LRU replacement policy
DTLB has LRU replacement policy
STLB has LRU replacement policy
CPU 0 L1I next line prefetcher
L1I has LRU replacement policy
L1D has LRU replacement policy
Initialize SRRIP state for L2C
Initialize DRRIP state for LLC
Heartbeat CPU 0 instructions: 10000000 cycles: 3208964 heartbeat IPC: 3.11627 cumulative IPC: 3.11627 (Simulation time: 0 hr 5 min 51 sec) 
Heartbeat CPU 0 instructions: 20000000 cycles: 6414639 heartbeat IPC: 3.11947 cumulative IPC: 3.11787 (Simulation time: 0 hr 9 min 49 sec) 
Heartbeat CPU 0 instructions: 30000002 cycles: 9629115 heartbeat IPC: 3.11093 cumulative IPC: 3.11555 (Simulation time: 0 hr 13 min 36 sec) 
Heartbeat CPU 0 instructions: 40000000 cycles: 12837326 heartbeat IPC: 3.117 cumulative IPC: 3.11591 (Simulation time: 0 hr 17 min 20 sec) 
Heartbeat CPU 0 instructions: 50000000 cycles: 16059638 heartbeat IPC: 3.10336 cumulative IPC: 3.1134 (Simulation time: 0 hr 20 min 41 sec) 

Warmup complete CPU 0 instructions: 50000004 cycles: 16059639 (Simulation time: 0 hr 20 min 41 sec) 

% increase in all ip prefetch 446.971
% increase in all ip prefetch -16.1859
Heartbeat CPU 0 instructions: 60000000 cycles: 37313089 heartbeat IPC: 0.470512 cumulative IPC: 0.470512 (Simulation time: 0 hr 25 min 27 sec) 
Heartbeat CPU 0 instructions: 70000000 cycles: 58696359 heartbeat IPC: 0.467655 cumulative IPC: 0.469079 (Simulation time: 0 hr 30 min 18 sec) 
Heartbeat CPU 0 instructions: 80000000 cycles: 79921371 heartbeat IPC: 0.471142 cumulative IPC: 0.469765 (Simulation time: 0 hr 34 min 36 sec) 
Heartbeat CPU 0 instructions: 90000003 cycles: 106835894 heartbeat IPC: 0.371547 cumulative IPC: 0.440644 (Simulation time: 0 hr 36 min 55 sec) 
Heartbeat CPU 0 instructions: 100000003 cycles: 132066252 heartbeat IPC: 0.396348 cumulative IPC: 0.43101 (Simulation time: 0 hr 38 min 43 sec) 
Finished CPU 0 instructions: 50000003 cycles: 116006630 cumulative IPC: 0.43101 (Simulation time: 0 hr 38 min 43 sec) 

ChampSim completed all CPUs

Region of Interest Statistics

CPU 0 cumulative IPC: 0.43101 instructions: 50000003 cycles: 116006630

CPU 0 Average Load ROB stall cycles: 9.06893e+06
CPU 0 Fraction of times ROB stalled by Loads: 13.021
CPU 0 Percentage of Load stall cycles in Total stall cycles: 8.86639e+07
 Total stall cycles: 51458249
 Total load stall cycles: 45624888497708
CPU 0 NUM of IPS identified critical: 6
CPU 0 Num of Load IPs stalling ROB: 2166
Threshold modification factor: -1
Max PIST entries: 64
Min PIST entries: 0
Avg PIST entries: 29.95
Trouble in retire width: 0.853003
MaC = Marked as critical.
lt_50_percent_before_Mac: 6
gt_90_percent_before_Mac: 0
gt_75_percent_before_Mac: 0
gt_50_percent_before_Mac: 0
stall_proportion_bin_same_before_after: 0
stall_proportion_bin_lower_before_after: 0
stall_proportion_bin_upper_before_after: 0
average_stall_proportion_before: 0.188062
average_stall_proportion_after: 0.148547
Critical IP stalls, total frequency: 274950
Non-critical IP stalls, total frequency: 368427
Critical_IP_ROB_Stalls_Bucket_0: 7958
Non-critical_IP_ROB_Stalls_Bucket_0: 143045
Critical_IP_ROB_Stalls_Bucket_1: 28665
Non-critical_IP_ROB_Stalls_Bucket_1: 109108
Critical_IP_ROB_Stalls_Bucket_2: 37425
Non-critical_IP_ROB_Stalls_Bucket_2: 59543
Critical_IP_ROB_Stalls_Bucket_3: 48197
Non-critical_IP_ROB_Stalls_Bucket_3: 19944
Critical_IP_ROB_Stalls_Bucket_4: 33619
Non-critical_IP_ROB_Stalls_Bucket_4: 9234
Critical_IP_ROB_Stalls_Bucket_5: 35205
Non-critical_IP_ROB_Stalls_Bucket_5: 10307
Critical_IP_ROB_Stalls_Bucket_6: 83881
Non-critical_IP_ROB_Stalls_Bucket_6: 28940
0 => IPs accounting for >50 percent of stalls, 1 => 55, 2 => 60, 3 => 65 and so on till 90.
percent50: 50.0386 num IPs:12
percent55: 55.2336 num IPs:25
percent60: 60.0452 num IPs:40
percent65: 65.2218 num IPs:58
percent70: 70.0084 num IPs:77
percent75: 75.0203 num IPs:101
percent80: 80.1079 num IPs:133
percent85: 85.0214 num IPs:178
percent90: 90.0108 num IPs:274
Critical_ROB_Stalls_Percent_0_Bucket_0: 35286
Non-critical_ROB_Stalls_Percent_0_Bucket_0: 115717
Critical_ROB_Stalls_Percent_0_Bucket_1: 46249
Non-critical_ROB_Stalls_Percent_0_Bucket_1: 91524
Critical_ROB_Stalls_Percent_0_Bucket_2: 41456
Non-critical_ROB_Stalls_Percent_0_Bucket_2: 55512
Critical_ROB_Stalls_Percent_0_Bucket_3: 46828
Non-critical_ROB_Stalls_Percent_0_Bucket_3: 21313
Critical_ROB_Stalls_Percent_0_Bucket_4: 33797
Non-critical_ROB_Stalls_Percent_0_Bucket_4: 9056
Critical_ROB_Stalls_Percent_0_Bucket_5: 34632
Non-critical_ROB_Stalls_Percent_0_Bucket_5: 10880
Critical_ROB_Stalls_Percent_0_Bucket_6: 83689
Non-critical_ROB_Stalls_Percent_0_Bucket_6: 29132
Critical_ROB_Stalls_Percent_1_Bucket_0: 41924
Non-critical_ROB_Stalls_Percent_1_Bucket_0: 109079
Critical_ROB_Stalls_Percent_1_Bucket_1: 52195
Non-critical_ROB_Stalls_Percent_1_Bucket_1: 85578
Critical_ROB_Stalls_Percent_1_Bucket_2: 45692
Non-critical_ROB_Stalls_Percent_1_Bucket_2: 51276
Critical_ROB_Stalls_Percent_1_Bucket_3: 50340
Non-critical_ROB_Stalls_Percent_1_Bucket_3: 17801
Critical_ROB_Stalls_Percent_1_Bucket_4: 34833
Non-critical_ROB_Stalls_Percent_1_Bucket_4: 8020
Critical_ROB_Stalls_Percent_1_Bucket_5: 38708
Non-critical_ROB_Stalls_Percent_1_Bucket_5: 6804
Critical_ROB_Stalls_Percent_1_Bucket_6: 91668
Non-critical_ROB_Stalls_Percent_1_Bucket_6: 21153
Critical_ROB_Stalls_Percent_2_Bucket_0: 51884
Non-critical_ROB_Stalls_Percent_2_Bucket_0: 99119
Critical_ROB_Stalls_Percent_2_Bucket_1: 63241
Non-critical_ROB_Stalls_Percent_2_Bucket_1: 74532
Critical_ROB_Stalls_Percent_2_Bucket_2: 52701
Non-critical_ROB_Stalls_Percent_2_Bucket_2: 44267
Critical_ROB_Stalls_Percent_2_Bucket_3: 53061
Non-critical_ROB_Stalls_Percent_2_Bucket_3: 15080
Critical_ROB_Stalls_Percent_2_Bucket_4: 34852
Non-critical_ROB_Stalls_Percent_2_Bucket_4: 8001
Critical_ROB_Stalls_Percent_2_Bucket_5: 38783
Non-critical_ROB_Stalls_Percent_2_Bucket_5: 6729
Critical_ROB_Stalls_Percent_2_Bucket_6: 91795
Non-critical_ROB_Stalls_Percent_2_Bucket_6: 21026
Critical_ROB_Stalls_Percent_3_Bucket_0: 62834
Non-critical_ROB_Stalls_Percent_3_Bucket_0: 88169
Critical_ROB_Stalls_Percent_3_Bucket_1: 75420
Non-critical_ROB_Stalls_Percent_3_Bucket_1: 62353
Critical_ROB_Stalls_Percent_3_Bucket_2: 61941
Non-critical_ROB_Stalls_Percent_3_Bucket_2: 35027
Critical_ROB_Stalls_Percent_3_Bucket_3: 53817
Non-critical_ROB_Stalls_Percent_3_Bucket_3: 14324
Critical_ROB_Stalls_Percent_3_Bucket_4: 34900
Non-critical_ROB_Stalls_Percent_3_Bucket_4: 7953
Critical_ROB_Stalls_Percent_3_Bucket_5: 38830
Non-critical_ROB_Stalls_Percent_3_Bucket_5: 6682
Critical_ROB_Stalls_Percent_3_Bucket_6: 91880
Non-critical_ROB_Stalls_Percent_3_Bucket_6: 20941
Critical_ROB_Stalls_Percent_4_Bucket_0: 71192
Non-critical_ROB_Stalls_Percent_4_Bucket_0: 79811
Critical_ROB_Stalls_Percent_4_Bucket_1: 83431
Non-critical_ROB_Stalls_Percent_4_Bucket_1: 54342
Critical_ROB_Stalls_Percent_4_Bucket_2: 68344
Non-critical_ROB_Stalls_Percent_4_Bucket_2: 28624
Critical_ROB_Stalls_Percent_4_Bucket_3: 55529
Non-critical_ROB_Stalls_Percent_4_Bucket_3: 12612
Critical_ROB_Stalls_Percent_4_Bucket_4: 36822
Non-critical_ROB_Stalls_Percent_4_Bucket_4: 6031
Critical_ROB_Stalls_Percent_4_Bucket_5: 40264
Non-critical_ROB_Stalls_Percent_4_Bucket_5: 5248
Critical_ROB_Stalls_Percent_4_Bucket_6: 94836
Non-critical_ROB_Stalls_Percent_4_Bucket_6: 17985
Critical_ROB_Stalls_Percent_5_Bucket_0: 87601
Non-critical_ROB_Stalls_Percent_5_Bucket_0: 63402
Critical_ROB_Stalls_Percent_5_Bucket_1: 88306
Non-critical_ROB_Stalls_Percent_5_Bucket_1: 49467
Critical_ROB_Stalls_Percent_5_Bucket_2: 73953
Non-critical_ROB_Stalls_Percent_5_Bucket_2: 23015
Critical_ROB_Stalls_Percent_5_Bucket_3: 57029
Non-critical_ROB_Stalls_Percent_5_Bucket_3: 11112
Critical_ROB_Stalls_Percent_5_Bucket_4: 37342
Non-critical_ROB_Stalls_Percent_5_Bucket_4: 5511
Critical_ROB_Stalls_Percent_5_Bucket_5: 41317
Non-critical_ROB_Stalls_Percent_5_Bucket_5: 4195
Critical_ROB_Stalls_Percent_5_Bucket_6: 97115
Non-critical_ROB_Stalls_Percent_5_Bucket_6: 15706
Critical_ROB_Stalls_Percent_6_Bucket_0: 99284
Non-critical_ROB_Stalls_Percent_6_Bucket_0: 51719
Critical_ROB_Stalls_Percent_6_Bucket_1: 97804
Non-critical_ROB_Stalls_Percent_6_Bucket_1: 39969
Critical_ROB_Stalls_Percent_6_Bucket_2: 76944
Non-critical_ROB_Stalls_Percent_6_Bucket_2: 20024
Critical_ROB_Stalls_Percent_6_Bucket_3: 58933
Non-critical_ROB_Stalls_Percent_6_Bucket_3: 9208
Critical_ROB_Stalls_Percent_6_Bucket_4: 39253
Non-critical_ROB_Stalls_Percent_6_Bucket_4: 3600
Critical_ROB_Stalls_Percent_6_Bucket_5: 41579
Non-critical_ROB_Stalls_Percent_6_Bucket_5: 3933
Critical_ROB_Stalls_Percent_6_Bucket_6: 101599
Non-critical_ROB_Stalls_Percent_6_Bucket_6: 11222
Critical_ROB_Stalls_Percent_7_Bucket_0: 112504
Non-critical_ROB_Stalls_Percent_7_Bucket_0: 38499
Critical_ROB_Stalls_Percent_7_Bucket_1: 105394
Non-critical_ROB_Stalls_Percent_7_Bucket_1: 32379
Critical_ROB_Stalls_Percent_7_Bucket_2: 80907
Non-critical_ROB_Stalls_Percent_7_Bucket_2: 16061
Critical_ROB_Stalls_Percent_7_Bucket_3: 60837
Non-critical_ROB_Stalls_Percent_7_Bucket_3: 7304
Critical_ROB_Stalls_Percent_7_Bucket_4: 39663
Non-critical_ROB_Stalls_Percent_7_Bucket_4: 3190
Critical_ROB_Stalls_Percent_7_Bucket_5: 42329
Non-critical_ROB_Stalls_Percent_7_Bucket_5: 3183
Critical_ROB_Stalls_Percent_7_Bucket_6: 105374
Non-critical_ROB_Stalls_Percent_7_Bucket_6: 7447
Critical_ROB_Stalls_Percent_8_Bucket_0: 125830
Non-critical_ROB_Stalls_Percent_8_Bucket_0: 25173
Critical_ROB_Stalls_Percent_8_Bucket_1: 114199
Non-critical_ROB_Stalls_Percent_8_Bucket_1: 23574
Critical_ROB_Stalls_Percent_8_Bucket_2: 84667
Non-critical_ROB_Stalls_Percent_8_Bucket_2: 12301
Critical_ROB_Stalls_Percent_8_Bucket_3: 63475
Non-critical_ROB_Stalls_Percent_8_Bucket_3: 4666
Critical_ROB_Stalls_Percent_8_Bucket_4: 40586
Non-critical_ROB_Stalls_Percent_8_Bucket_4: 2267
Critical_ROB_Stalls_Percent_8_Bucket_5: 42916
Non-critical_ROB_Stalls_Percent_8_Bucket_5: 2596
Critical_ROB_Stalls_Percent_8_Bucket_6: 107436
Non-critical_ROB_Stalls_Percent_8_Bucket_6: 5385
Average ROB occupancy Load Stall Begin: 142.002
Average ROB occupancy Load Stall End: 151.343
Min ROB occupancy Load Stall Begin: 1
Max ROB occupancy Load Stall Begin: 351
Min ROB occupancy Load Stall End: 1
Max ROB occupancy Load Stall End: 352
Average ROB occupancy Critical Load Stall Begin: 220.041
Average ROB occupancy Critical Load Stall End: 226.887
Min ROB occupancy Critical Load Stall Begin: 17
Max ROB occupancy Critical Load Stall Begin: 351
Min ROB occupancy Critical Load Stall End: 19
Max ROB occupancy Critical Load Stall End: 352
 ROB Load Stall Begin Bucket Count 0: 187609
 ROB Load Stall End Bucket Count 0: 151003
 ROB Critical Load Stall Begin Bucket Count 0: 9131
 ROB Critical Load Stall End Bucket Count 0: 6148
 ROB Load Stall Begin Bucket Count 1: 128992
 ROB Load Stall End Bucket Count 1: 137773
 ROB Critical Load Stall Begin Bucket Count 1: 30900
 ROB Critical Load Stall End Bucket Count 1: 26296
 ROB Load Stall Begin Bucket Count 2: 91751
 ROB Load Stall End Bucket Count 2: 96968
 ROB Critical Load Stall Begin Bucket Count 2: 39141
 ROB Critical Load Stall End Bucket Count 2: 36975
 ROB Load Stall Begin Bucket Count 3: 58186
 ROB Load Stall End Bucket Count 3: 68141
 ROB Critical Load Stall Begin Bucket Count 3: 40886
 ROB Critical Load Stall End Bucket Count 3: 45257
 ROB Load Stall Begin Bucket Count 4: 39635
 ROB Load Stall End Bucket Count 4: 42853
 ROB Critical Load Stall Begin Bucket Count 4: 32454
 ROB Critical Load Stall End Bucket Count 4: 33469
 ROB Load Stall Begin Bucket Count 5: 44541
 ROB Load Stall End Bucket Count 5: 45512
 ROB Critical Load Stall Begin Bucket Count 5: 33316
 ROB Critical Load Stall End Bucket Count 5: 34894
 ROB Load Stall Begin Bucket Count 6: 104357
 ROB Load Stall End Bucket Count 6: 112821
 ROB Critical Load Stall Begin Bucket Count 6: 80848
 ROB Critical Load Stall End Bucket Count 6: 83637
PIST Tag Read Accesses: 310808
PIST Read Accesses: 155404
PIST Tag Write Accesses: 310808
PIST Write Accesses: 155404
Criticality detector called times: 215072
Max global_stall_cycles_count: 512084
Threshold Modified: 1 times, factor: -1
ITLB TOTAL     ACCESS:   10102256  HIT:    9682467  MISS:     419789  HIT %:    95.8446  MISS %:     4.1554   MPKI: 8.39578
ITLB LOAD TRANSLATION ACCESS:    8368118  HIT:    8357512  MISS:      10606  HIT %:    99.8733  MISS %:   0.126743   MPKI: 0.21212
ITLB TRANSLATION FROM L1D PREFETCHER ACCESS:    1734138  HIT:    1324955  MISS:     409183  HIT %:    76.4042  MISS %:    23.5958   MPKI: 8.18366
ITLB PREFETCH  REQUESTED:          0  ISSUED:          0  USEFUL:     367793  USELESS:      41388
ITLB USEFUL LOAD PREFETCHES:     367793 PREFETCH ISSUED TO LOWER LEVEL:          0  ACCURACY: inf
ITLB TIMELY PREFETCHES:     367793 LATE PREFETCHES: 417 DROPPED PREFETCHES: 90
ITLB PREFETCHES SAME FILL-ORIGIN LEVEL: 0 DIFFERENT FILL-ORIGIN LEVEL: 0
ITLB AVERAGE MISS LATENCY: 69000.5 cycles
ITLB RQ	ACCESS:   14258122	FORWARD:          0	MERGED:    4107596	TO_CACHE:   10150526

DTLB TOTAL     ACCESS:   10611700  HIT:   10171711  MISS:     439989  HIT %:    95.8537  MISS %:    4.14626   MPKI: 8.79978
DTLB LOAD TRANSLATION ACCESS:   10611700  HIT:   10171711  MISS:     439989  HIT %:    95.8537  MISS %:    4.14626   MPKI: 8.79978
DTLB PREFETCH  REQUESTED:          0  ISSUED:          0  USEFUL:          0  USELESS:          0
DTLB USEFUL LOAD PREFETCHES:          0 PREFETCH ISSUED TO LOWER LEVEL:          0  ACCURACY: -nan
DTLB TIMELY PREFETCHES:          0 LATE PREFETCHES: 0 DROPPED PREFETCHES: 0
DTLB PREFETCHES SAME FILL-ORIGIN LEVEL: 0 DIFFERENT FILL-ORIGIN LEVEL: 0
DTLB AVERAGE MISS LATENCY: 27.3743 cycles
DTLB RQ	ACCESS:   15437662	FORWARD:          0	MERGED:    4746666	TO_CACHE:   10690996

STLB TOTAL     ACCESS:     859778  HIT:     796358  MISS:      63420  HIT %:    92.6237  MISS %:    7.37632   MPKI: 1.2684
STLB LOAD TRANSLATION ACCESS:     450178  HIT:     387767  MISS:      62411  HIT %:    86.1364  MISS %:    13.8636   MPKI: 1.24822
STLB TRANSLATION FROM L1D PREFETCHER ACCESS:     409600  HIT:     408591  MISS:       1009  HIT %:    99.7537  MISS %:   0.246338   MPKI: 0.02018
STLB PREFETCH  REQUESTED:          0  ISSUED:          0  USEFUL:        764  USELESS:        245
STLB USEFUL LOAD PREFETCHES:        764 PREFETCH ISSUED TO LOWER LEVEL:          0  ACCURACY: inf
STLB TIMELY PREFETCHES:        764 LATE PREFETCHES: 0 DROPPED PREFETCHES: 90
STLB PREFETCHES SAME FILL-ORIGIN LEVEL: 0 DIFFERENT FILL-ORIGIN LEVEL: 0
STLB AVERAGE MISS LATENCY: 134.119 cycles
STLB RQ	ACCESS:     859868	FORWARD:          0	MERGED:          0	TO_CACHE:     859868

STLB Hit, L1D data hit: 0
STLB Hit, L2C data hit: 0
STLB Hit, LLC data hit: 0
STLB Hit, LLC data miss: 0
STLB STLB hints to L2: 0
L1D TOTAL     ACCESS:   13091769  HIT:   11353783  MISS:    1737986  HIT %:    86.7246  MISS %:    13.2754   MPKI: 34.7597
L1D LOAD      ACCESS:    7328215  HIT:    6462520  MISS:     865695  HIT %:    88.1868  MISS %:    11.8132   MPKI: 17.3139
L1D RFO       ACCESS:    5763554  HIT:    4891263  MISS:     872291  HIT %:    84.8654  MISS %:    15.1346   MPKI: 17.4458
L1D PREFETCH  REQUESTED:          0  ISSUED:          0  USEFUL:          0  USELESS:          0
L1D USEFUL LOAD PREFETCHES:          0 PREFETCH ISSUED TO LOWER LEVEL:          0  ACCURACY: -nan
L1D TIMELY PREFETCHES:          0 LATE PREFETCHES: 0 DROPPED PREFETCHES: 0
L1D PREFETCHES SAME FILL-ORIGIN LEVEL: 0 DIFFERENT FILL-ORIGIN LEVEL: 0
L1D AVERAGE MISS LATENCY: 163.074 cycles
L1D RQ	ACCESS:   10783816	FORWARD:          0	MERGED:    3311455	TO_CACHE:    7362294
L1D WQ	ACCESS:    8175288	FORWARD:     110067	MERGED:      99920	TO_CACHE:    8075368

L1D UNIQUE REGIONS ACCESSED: 0
L1D REGIONS CONFLICTS: 0
L1D Cross Page Prefetch Requests: 0
L1D Same Page Prefetch Requests: 0
L1D ROI Sum of L1D PQ occupancy: 0
L1D PREFETCHES PUSHED FROM L2C: 0
L1I TOTAL     ACCESS:   14185169  HIT:   11368726  MISS:    2816443  HIT %:    80.1452  MISS %:    19.8548   MPKI: 56.3289
L1I LOAD      ACCESS:    9740016  HIT:    9717343  MISS:      22673  HIT %:    99.7672  MISS %:   0.232782   MPKI: 0.45346
L1I PREFETCH  ACCESS:    4445153  HIT:    1651383  MISS:    2793770  HIT %:    37.1502  MISS %:    62.8498   MPKI: 55.8754
L1I PREFETCH  REQUESTED:    4687199  ISSUED:    4678106  USEFUL:    2342152  USELESS:     451602
L1I USEFUL LOAD PREFETCHES:    2342152 PREFETCH ISSUED TO LOWER LEVEL:    2814001  ACCURACY: 83.2321
L1I TIMELY PREFETCHES:    2342152 LATE PREFETCHES: 10106 DROPPED PREFETCHES: 155
L1I PREFETCHES SAME FILL-ORIGIN LEVEL: 2814001 DIFFERENT FILL-ORIGIN LEVEL: 0
L1I AVERAGE MISS LATENCY: 280677 cycles
L1I RQ	ACCESS:   14050623	FORWARD:          0	MERGED:    4304602	TO_CACHE:    9746021
L1I PQ	ACCESS:    4678106	FORWARD:          0	MERGED:     166005	TO_CACHE:    4512101

BTB TOTAL     ACCESS:    5420737  HIT:    5179354  MISS:     241383  HIT %:     95.547  MISS %:    4.45296   MPKI: 4.82766
BTB BRANCH_DIRECT_JUMP	ACCESS:     464500  HIT:     462787  MISS:       1713
BTB BRANCH_INDIRECT	ACCESS:      45704  HIT:      45540  MISS:        164
BTB BRANCH_CONDITIONAL	ACCESS:    3156565  HIT:    3151071  MISS:       5494
BTB BRANCH_DIRECT_CALL	ACCESS:     675450  HIT:     671839  MISS:       3611
BTB BRANCH_INDIRECT_CALL	ACCESS:     201532  HIT:     175397  MISS:      26135
BTB BRANCH_RETURN	ACCESS:     876986  HIT:     672720  MISS:     204266
BTB BRANCH_OTHER ACCESS:          0  HIT:          0  MISS:          0

L2C TOTAL     ACCESS:    7236879  HIT:    5473477  MISS:    1763402  HIT %:    75.6331  MISS %:    24.3669   MPKI: 35.268
L2C LOAD      ACCESS:     878250  HIT:     340089  MISS:     538161  HIT %:    38.7235  MISS %:    61.2765   MPKI: 10.7632
L2C DATA LOAD MPKI: 10.6489
L2C INSTRUCTION LOAD MPKI: 0.11428
L2C RFO       ACCESS:     872289  HIT:      29821  MISS:     842468  HIT %:    3.41871  MISS %:    96.5813   MPKI: 16.8494
L2C PREFETCH  ACCESS:    4286879  HIT:    3991761  MISS:     295118  HIT %:    93.1158  MISS %:    6.88422   MPKI: 5.90236
L2C DATA PREFETCH MPKI: 3.24686
L2C INSTRUCTION PREFETCH MPKI: 2.6555
L2C WRITEBACK ACCESS:    1110592  HIT:    1054035  MISS:      56557  HIT %:    94.9075  MISS %:    5.09251   MPKI: 1.13114
L2C LOAD TRANSLATION ACCESS:      87233  HIT:      57147  MISS:      30086  HIT %:    65.5108  MISS %:    34.4892   MPKI: 0.60172
L2C TRANSLATION FROM L1D PREFETCHER ACCESS:       1636  HIT:        624  MISS:       1012  HIT %:    38.1418  MISS %:    61.8582   MPKI: 0.02024
L2C PREFETCH  REQUESTED:    6621265  ISSUED:    6613902  USEFUL:     156464  USELESS:     140454
L2C USEFUL LOAD PREFETCHES:     156464 PREFETCH ISSUED TO LOWER LEVEL:    2839256  ACCURACY: 5.51074
L2C TIMELY PREFETCHES:     156464 LATE PREFETCHES: 1633 DROPPED PREFETCHES: 0
L2C PREFETCHES SAME FILL-ORIGIN LEVEL: 164046 DIFFERENT FILL-ORIGIN LEVEL: 2542505
L2C AVERAGE MISS LATENCY: 159.246 cycles
L2C RQ	ACCESS:    1839424	FORWARD:          0	MERGED:          0	TO_CACHE:    1839410
L2C WQ	ACCESS:    1110592	FORWARD:         14	MERGED:          0	TO_CACHE:    1110592
L2C PQ	ACCESS:    9417778	FORWARD:          0	MERGED:    2535789	TO_CACHE:    6881989

L2C Instructions Evicting Data 124421
L2C Translations Evicting Data 27773
L2C Data Evicting Data 1389579
L2C Instructions Evicting Instructions 11350
L2C Translations Evicting Instructions 2870
L2C Data Evicting Instructions 120555
L2C Instructions Evicting Translations 2718
L2C Translations Evicting Translations 455
L2C Data Evicting Translations 27124
L2C Dense regions hint from L2: 0
PSCL5 TOTAL     ACCESS:      63510  HIT:      63510  MISS:          0  HIT %:        100  MISS %:          0   MPKI: 0
PSCL5 LOAD TRANSLATION ACCESS:      62411  HIT:      62411  MISS:          0  HIT %:        100  MISS %:          0   MPKI: 0
PSCL5 TRANSLATION FROM L1D PREFETCHER ACCESS:       1099  HIT:       1099  MISS:          0  HIT %:        100  MISS %:          0   MPKI: 0
PSCL5 PREFETCH  REQUESTED:          0  ISSUED:          0  USEFUL:          0  USELESS:          0
PSCL5 USEFUL LOAD PREFETCHES:          0 PREFETCH ISSUED TO LOWER LEVEL:          0  ACCURACY: -nan
PSCL5 TIMELY PREFETCHES:          0 LATE PREFETCHES: 0 DROPPED PREFETCHES: 0
PSCL5 PREFETCHES SAME FILL-ORIGIN LEVEL: 0 DIFFERENT FILL-ORIGIN LEVEL: 0

PSCL4 TOTAL     ACCESS:      36027  HIT:      35897  MISS:        130  HIT %:    99.6392  MISS %:    0.36084   MPKI: 0.0026
PSCL4 LOAD TRANSLATION ACCESS:      35097  HIT:      34967  MISS:        130  HIT %:    99.6296  MISS %:   0.370402   MPKI: 0.0026
PSCL4 TRANSLATION FROM L1D PREFETCHER ACCESS:        930  HIT:        930  MISS:          0  HIT %:        100  MISS %:          0   MPKI: 0
PSCL4 PREFETCH  REQUESTED:          0  ISSUED:          0  USEFUL:          0  USELESS:          0
PSCL4 USEFUL LOAD PREFETCHES:          0 PREFETCH ISSUED TO LOWER LEVEL:          0  ACCURACY: -nan
PSCL4 TIMELY PREFETCHES:          0 LATE PREFETCHES: 0 DROPPED PREFETCHES: 0
PSCL4 PREFETCHES SAME FILL-ORIGIN LEVEL: 0 DIFFERENT FILL-ORIGIN LEVEL: 0

PSCL3 TOTAL     ACCESS:      63248  HIT:      62762  MISS:        486  HIT %:    99.2316  MISS %:   0.768404   MPKI: 0.00972
PSCL3 LOAD TRANSLATION ACCESS:      62286  HIT:      61800  MISS:        486  HIT %:    99.2197  MISS %:   0.780272   MPKI: 0.00972
PSCL3 TRANSLATION FROM L1D PREFETCHER ACCESS:        962  HIT:        962  MISS:          0  HIT %:        100  MISS %:          0   MPKI: 0
PSCL3 PREFETCH  REQUESTED:          0  ISSUED:          0  USEFUL:          0  USELESS:          0
PSCL3 USEFUL LOAD PREFETCHES:          0 PREFETCH ISSUED TO LOWER LEVEL:          0  ACCURACY: -nan
PSCL3 TIMELY PREFETCHES:          0 LATE PREFETCHES: 0 DROPPED PREFETCHES: 0
PSCL3 PREFETCHES SAME FILL-ORIGIN LEVEL: 0 DIFFERENT FILL-ORIGIN LEVEL: 0

PSCL2 TOTAL     ACCESS:      63426  HIT:      38728  MISS:      24698  HIT %:    61.0601  MISS %:    38.9399   MPKI: 0.49396
PSCL2 LOAD TRANSLATION ACCESS:      62741  HIT:      38043  MISS:      24698  HIT %:     60.635  MISS %:     39.365   MPKI: 0.49396
PSCL2 TRANSLATION FROM L1D PREFETCHER ACCESS:        685  HIT:        685  MISS:          0  HIT %:        100  MISS %:          0   MPKI: 0
PSCL2 PREFETCH  REQUESTED:          0  ISSUED:          0  USEFUL:          0  USELESS:          0
PSCL2 USEFUL LOAD PREFETCHES:          0 PREFETCH ISSUED TO LOWER LEVEL:          0  ACCURACY: -nan
PSCL2 TIMELY PREFETCHES:          0 LATE PREFETCHES: 0 DROPPED PREFETCHES: 0
PSCL2 PREFETCHES SAME FILL-ORIGIN LEVEL: 0 DIFFERENT FILL-ORIGIN LEVEL: 0

LLC TOTAL     ACCESS:    4999143  HIT:    2812864  MISS:    2186279  HIT %:    56.2669  MISS %:    43.7331   MPKI: 43.7256
LLC LOAD      ACCESS:     536554  HIT:     353233  MISS:     183321  HIT %:    65.8336  MISS %:    34.1664   MPKI: 3.66642
LLC RFO       ACCESS:     842439  HIT:     126748  MISS:     715691  HIT %:    15.0454  MISS %:    84.9546   MPKI: 14.3138
LLC PREFETCH  ACCESS:    2544732  HIT:    2046734  MISS:     497998  HIT %:    80.4302  MISS %:    19.5698   MPKI: 9.95996
LLC WRITEBACK ACCESS:    1044320  HIT:     278437  MISS:     765883  HIT %:     26.662  MISS %:     73.338   MPKI: 15.3177
LLC LOAD TRANSLATION ACCESS:      30086  HIT:       7561  MISS:      22525  HIT %:    25.1313  MISS %:    74.8687   MPKI: 0.4505
LLC TRANSLATION FROM L1D PREFETCHER ACCESS:       1012  HIT:        151  MISS:        861  HIT %:    14.9209  MISS %:    85.0791   MPKI: 0.01722
LLC PREFETCH  REQUESTED:          0  ISSUED:          0  USEFUL:     137820  USELESS:     360396
LLC USEFUL LOAD PREFETCHES:     137820 PREFETCH ISSUED TO LOWER LEVEL:     508494  ACCURACY: 27.1036
LLC TIMELY PREFETCHES:     137820 LATE PREFETCHES: 10494 DROPPED PREFETCHES: 0
LLC PREFETCHES SAME FILL-ORIGIN LEVEL: 476369 DIFFERENT FILL-ORIGIN LEVEL: 0
LLC AVERAGE MISS LATENCY: 145.715 cycles
LLC RQ	ACCESS:    1410096	FORWARD:          0	MERGED:          0	TO_CACHE:    1410093
LLC WQ	ACCESS:    1044320	FORWARD:          3	MERGED:          0	TO_CACHE:    1044320
LLC PQ	ACCESS:    2839256	FORWARD:          0	MERGED:       4434	TO_CACHE:    2834822

LLC Dense regions hint to LLC: 0

RAW hits: 1304785
Loads Generated: 12088598
Loads sent to L1D: 10783816
Stores Generated: 8175295
Stores sent to L1D: 8175288
Major fault: 0 Minor fault: 24906
Allocated PAGES: 24906
I-Shadow cache 408 bytes
Touched + WorthPF tables 6144 bytes 
MMA filter 174 bytes 
FNL filter 272 bytes 
TOTAL PREFETCHER STORAGE SIZE: 25174 bytes
CPU 0 L1I next line prefetcher final stats
 All Calls: 7452480
 Critical Calls: 7452480
------------------
Depth Distribution
------------------
depth 0: 0
depth 1: 7039705
depth 2: 3667171
depth 3: 1337182
depth 4: 647523
depth 5: 443237
depth 6: 282302
depth 7: 157051
depth 8: 84828
depth 9: 15718
depth 10: 1293
depth 11: 628
depth 12: 385
depth 13: 215
depth 14: 23
depth 15: 19
depth 16: 0
depth 17: 0
depth 18: 0
depth 19: 0
depth 20: 0
depth 21: 0
depth 22: 0
depth 23: 0
depth 24: 0
depth 25: 0
depth 26: 0
depth 27: 0
depth 28: 0
depth 29: 0
Total: 13677280
-----------------------------
-----------------------------
	Captured at Filter
-----------------------------
depth 0: 0
depth 1: 684458
depth 2: 457133
depth 3: 255463
depth 4: 130947
depth 5: 26825
depth 6: 7195
depth 7: 2228
depth 8: 339
depth 9: 58
depth 10: 3
depth 11: 4
depth 12: 1
depth 13: 0
depth 14: 0
depth 15: 0
depth 16: 0
depth 17: 0
depth 18: 0
depth 19: 0
depth 20: 0
depth 21: 0
depth 22: 0
depth 23: 0
depth 24: 0
depth 25: 0
depth 26: 0
depth 27: 0
depth 28: 0
depth 29: 0
-----------------------------
-----------------------------
		Lost at Page
-----------------------------
depth 0: 0
depth 1: 333725
depth 2: 137842
depth 3: 49691
depth 4: 32965
depth 5: 32976
depth 6: 27778
depth 7: 18844
depth 8: 11884
depth 9: 2515
depth 10: 247
depth 11: 130
depth 12: 95
depth 13: 58
depth 14: 8
depth 15: 9
depth 16: 0
depth 17: 0
depth 18: 0
depth 19: 0
depth 20: 0
depth 21: 0
depth 22: 0
depth 23: 0
depth 24: 0
depth 25: 0
depth 26: 0
depth 27: 0
depth 28: 0
depth 29: 0
-----------------------------
-----------------------------
	Lost due to PQ Size
-----------------------------
140816
-----------------------------
ST read accesses: 3456718
ST write accesses: 148545
PT read accesses: 60203020
PT write accesses: 4949070
FILTER read accesses: 12711895
FILTER write accesses: 2316396
GHR read accesses: 3355142
GHR write accesses: 324086
GHR counter read accesses: 50304706
GHR counter write accesses: 4154406
ST tag read accesses: 1460560931
ST tag write accesses: 117169865

DRAM Statistics
 CHANNEL 0
 RQ ROW_BUFFER_HIT:     415964  ROW_BUFFER_MISS:    1004352
 DBUS_CONGESTED:        455
 WQ ROW_BUFFER_HIT:     199865  ROW_BUFFER_MISS:     649763  FULL:       8941

 AVG_CONGESTED_CYCLE: 3
 All warmup complete: 2
Channel 0 Bank busy for read cycles: 0
Channel 0 Bank busy for write cycles: 0
Channel 0
Rank 0
0banks busy for read cycles: 16194432
0banks busy for write cycles: 49309
1banks busy for read cycles: 22240557
1banks busy for write cycles: 7155310
2banks busy for read cycles: 16115726
2banks busy for write cycles: 5003375
3banks busy for read cycles: 10132198
3banks busy for write cycles: 3729238
4banks busy for read cycles: 5720857
4banks busy for write cycles: 2761922
5banks busy for read cycles: 2300340
5banks busy for write cycles: 2053065
6banks busy for read cycles: 1451521
6banks busy for write cycles: 1738175
7banks busy for read cycles: 1479006
7banks busy for write cycles: 2489173
8banks busy for read cycles: 4525087
8banks busy for write cycles: 10867340

CPU 0 Branch Prediction Accuracy: 99.2833% MPKI: 1.20566 Average ROB Occupancy at Mispredict: 134.665
Branch types
NOT_BRANCH: 41588331 83.1767%
BRANCH_DIRECT_JUMP: 464500 0.929%
BRANCH_INDIRECT: 45704 0.091408%
BRANCH_CONDITIONAL: 6147407 12.2948%
BRANCH_DIRECT_CALL: 675450 1.3509%
BRANCH_INDIRECT_CALL: 201532 0.403064%
BRANCH_RETURN: 876986 1.75397%
BRANCH_OTHER: 0 0%

DRAM PAGES: 1048576
Allocated PAGES: 24906
