
*** ChampSim Multicore Out-of-Order Simulator ***

Warmup Instructions: 50000000
Simulation Instructions: 50000000
Number of CPUs: 1
LLC sets: 2048
LLC ways: 16
Off-chip DRAM Size: 4096 MB Channels: 1 Width: 64-bit Data Rate: 6400 MT/s
CPU 0 runs ../IPC-traces//server_023.champsimtrace.xz
.xz
NUM_OF_IPS_IN_CRITICAL_IP_TRAINING: 64
NUM_OF_CRITICAL_IP_TRAINING_TABLE_WAYS: 2
NUM_OF_CRITICAL_IP_TRAINING_TABLE_SETS: 32
WOBBLY_CRITICAL_IP_CACHE_SETS: 32
WOBBLY_CRITICAL_IP_CACHE_WAYS: 4
BTB has LRU replacement policy
ITLB has LRU replacement policy
DTLB has LRU replacement policy
STLB has LRU replacement policy
CPU 0 L1I next line prefetcher
L1I has LRU replacement policy
IP Table Entries: 256
L1D has LRU replacement policy
Initialize SRRIP state for L2C
Initialize DRRIP state for LLC
Heartbeat CPU 0 instructions: 10000001 cycles: 2871685 heartbeat IPC: 3.48228 cumulative IPC: 3.48228 (Simulation time: 0 hr 6 min 25 sec) 
Heartbeat CPU 0 instructions: 20000000 cycles: 5739998 heartbeat IPC: 3.48637 cumulative IPC: 3.48432 (Simulation time: 0 hr 13 min 12 sec) 
Heartbeat CPU 0 instructions: 30000002 cycles: 8605547 heartbeat IPC: 3.48973 cumulative IPC: 3.48612 (Simulation time: 0 hr 20 min 19 sec) 
Heartbeat CPU 0 instructions: 40000002 cycles: 11473458 heartbeat IPC: 3.48686 cumulative IPC: 3.48631 (Simulation time: 0 hr 26 min 52 sec) 
Heartbeat CPU 0 instructions: 50000001 cycles: 14342285 heartbeat IPC: 3.48574 cumulative IPC: 3.48619 (Simulation time: 0 hr 32 min 49 sec) 

Warmup complete CPU 0 instructions: 50000001 cycles: 14342285 (Simulation time: 0 hr 32 min 49 sec) 

% increase in all ip prefetch 406.308
% increase in all ip prefetch -4.01617
Heartbeat CPU 0 instructions: 60000000 cycles: 30181739 heartbeat IPC: 0.631335 cumulative IPC: 0.631335 (Simulation time: 0 hr 38 min 36 sec) 
Heartbeat CPU 0 instructions: 70000000 cycles: 46284459 heartbeat IPC: 0.621013 cumulative IPC: 0.626131 (Simulation time: 0 hr 43 min 38 sec) 
Heartbeat CPU 0 instructions: 80000000 cycles: 62145667 heartbeat IPC: 0.630469 cumulative IPC: 0.627571 (Simulation time: 0 hr 48 min 15 sec) 
Heartbeat CPU 0 instructions: 90000000 cycles: 77518851 heartbeat IPC: 0.650483 cumulative IPC: 0.633146 (Simulation time: 0 hr 51 min 35 sec) 
Heartbeat CPU 0 instructions: 100000002 cycles: 93380530 heartbeat IPC: 0.63045 cumulative IPC: 0.632605 (Simulation time: 0 hr 54 min 35 sec) 
Finished CPU 0 instructions: 50000001 cycles: 79038245 cumulative IPC: 0.632605 (Simulation time: 0 hr 54 min 35 sec) 

ChampSim completed all CPUs

Region of Interest Statistics

CPU 0 cumulative IPC: 0.632605 instructions: 50000001 cycles: 79038245

CPU 0 Average Load ROB stall cycles: 1.99286e+07
CPU 0 Fraction of times ROB stalled by Loads: 36.9375
CPU 0 Percentage of Load stall cycles in Total stall cycles: 2.80627e+08
Issued all: 27962420
Issued LT all: 22049260
rob_not_full_when_issued_lt_all: 21624431
Issued LT one: 17217067
rob_not_full_when_issued_lt_one: 16845206
 Total stall cycles: 65665475
 Total load stall cycles: 184274724334299
CPU 0 NUM of IPS identified critical: 0
CPU 0 Num of Load IPs stalling ROB: 13690
Threshold modification factor: -1
Max PIST entries: 64
Min PIST entries: 0
Avg PIST entries: 31.99
Trouble in retire width: 0.894836
MaC = Marked as critical.
lt_50_percent_before_Mac: 0
gt_90_percent_before_Mac: 0
gt_75_percent_before_Mac: 0
gt_50_percent_before_Mac: 0
stall_proportion_bin_same_before_after: 0
stall_proportion_bin_lower_before_after: 0
stall_proportion_bin_upper_before_after: 0
average_stall_proportion_before: -nan
average_stall_proportion_after: -nan
Critical IP stalls, total frequency: 0
Non-critical IP stalls, total frequency: 3415523
Total Freq all stalling IPs: 3415523
stat_90_percent_critical_ip_stalls_freq: 3074073
stat_90_percent_non_critical_ip_stalls_freq: 341450
Critical_IP_ROB_Stalls_Bucket_0: 0
Non-critical_IP_ROB_Stalls_Bucket_0: 2370214
Critical_IP_ROB_Stalls_Bucket_1: 0
Non-critical_IP_ROB_Stalls_Bucket_1: 694266
Critical_IP_ROB_Stalls_Bucket_2: 0
Non-critical_IP_ROB_Stalls_Bucket_2: 241980
Critical_IP_ROB_Stalls_Bucket_3: 0
Non-critical_IP_ROB_Stalls_Bucket_3: 58191
Critical_IP_ROB_Stalls_Bucket_4: 0
Non-critical_IP_ROB_Stalls_Bucket_4: 19779
Critical_IP_ROB_Stalls_Bucket_5: 0
Non-critical_IP_ROB_Stalls_Bucket_5: 9310
Critical_IP_ROB_Stalls_Bucket_6: 0
Non-critical_IP_ROB_Stalls_Bucket_6: 21783
0 => IPs accounting for >50 percent of stalls, 1 => 55, 2 => 60, 3 => 65 and so on till 90.
percent50: 50.0128 num IPs:  387
percent55: 55.0018 num IPs: 561
percent60: 60.007 num IPs: 799
percent65: 65.0046 num IPs: 1066
percent70: 70.0094 num IPs: 1369
percent75: 75.0021 num IPs: 1734
percent80: 80.0051 num IPs: 2236
percent85: 85.0074 num IPs: 2771
percent90: 90.0027 num IPs: 3342
Critical_ROB_Stalls_Percent_0_Bucket_0: 969060
Non-critical_ROB_Stalls_Percent_0_Bucket_0: 1401154
Critical_ROB_Stalls_Percent_0_Bucket_1: 459071
Non-critical_ROB_Stalls_Percent_0_Bucket_1: 235195
Critical_ROB_Stalls_Percent_0_Bucket_2: 186661
Non-critical_ROB_Stalls_Percent_0_Bucket_2: 55319
Critical_ROB_Stalls_Percent_0_Bucket_3: 48223
Non-critical_ROB_Stalls_Percent_0_Bucket_3: 9968
Critical_ROB_Stalls_Percent_0_Bucket_4: 16993
Non-critical_ROB_Stalls_Percent_0_Bucket_4: 2786
Critical_ROB_Stalls_Percent_0_Bucket_5: 8210
Non-critical_ROB_Stalls_Percent_0_Bucket_5: 1100
Critical_ROB_Stalls_Percent_0_Bucket_6: 19979
Non-critical_ROB_Stalls_Percent_0_Bucket_6: 1804
Critical_ROB_Stalls_Percent_1_Bucket_0: 1084423
Non-critical_ROB_Stalls_Percent_1_Bucket_0: 1285791
Critical_ROB_Stalls_Percent_1_Bucket_1: 499250
Non-critical_ROB_Stalls_Percent_1_Bucket_1: 195016
Critical_ROB_Stalls_Percent_1_Bucket_2: 199141
Non-critical_ROB_Stalls_Percent_1_Bucket_2: 42839
Critical_ROB_Stalls_Percent_1_Bucket_3: 50206
Non-critical_ROB_Stalls_Percent_1_Bucket_3: 7985
Critical_ROB_Stalls_Percent_1_Bucket_4: 17340
Non-critical_ROB_Stalls_Percent_1_Bucket_4: 2439
Critical_ROB_Stalls_Percent_1_Bucket_5: 8226
Non-critical_ROB_Stalls_Percent_1_Bucket_5: 1084
Critical_ROB_Stalls_Percent_1_Bucket_6: 20015
Non-critical_ROB_Stalls_Percent_1_Bucket_6: 1768
Critical_ROB_Stalls_Percent_2_Bucket_0: 1213029
Non-critical_ROB_Stalls_Percent_2_Bucket_0: 1157185
Critical_ROB_Stalls_Percent_2_Bucket_1: 529019
Non-critical_ROB_Stalls_Percent_2_Bucket_1: 165247
Critical_ROB_Stalls_Percent_2_Bucket_2: 209581
Non-critical_ROB_Stalls_Percent_2_Bucket_2: 32399
Critical_ROB_Stalls_Percent_2_Bucket_3: 51694
Non-critical_ROB_Stalls_Percent_2_Bucket_3: 6497
Critical_ROB_Stalls_Percent_2_Bucket_4: 17808
Non-critical_ROB_Stalls_Percent_2_Bucket_4: 1971
Critical_ROB_Stalls_Percent_2_Bucket_5: 8307
Non-critical_ROB_Stalls_Percent_2_Bucket_5: 1003
Critical_ROB_Stalls_Percent_2_Bucket_6: 20114
Non-critical_ROB_Stalls_Percent_2_Bucket_6: 1669
Critical_ROB_Stalls_Percent_3_Bucket_0: 1345507
Non-critical_ROB_Stalls_Percent_3_Bucket_0: 1024707
Critical_ROB_Stalls_Percent_3_Bucket_1: 560653
Non-critical_ROB_Stalls_Percent_3_Bucket_1: 133613
Critical_ROB_Stalls_Percent_3_Bucket_2: 215241
Non-critical_ROB_Stalls_Percent_3_Bucket_2: 26739
Critical_ROB_Stalls_Percent_3_Bucket_3: 52512
Non-critical_ROB_Stalls_Percent_3_Bucket_3: 5679
Critical_ROB_Stalls_Percent_3_Bucket_4: 17893
Non-critical_ROB_Stalls_Percent_3_Bucket_4: 1886
Critical_ROB_Stalls_Percent_3_Bucket_5: 8316
Non-critical_ROB_Stalls_Percent_3_Bucket_5: 994
Critical_ROB_Stalls_Percent_3_Bucket_6: 20127
Non-critical_ROB_Stalls_Percent_3_Bucket_6: 1656
Critical_ROB_Stalls_Percent_4_Bucket_0: 1482000
Non-critical_ROB_Stalls_Percent_4_Bucket_0: 888214
Critical_ROB_Stalls_Percent_4_Bucket_1: 588080
Non-critical_ROB_Stalls_Percent_4_Bucket_1: 106186
Critical_ROB_Stalls_Percent_4_Bucket_2: 220855
Non-critical_ROB_Stalls_Percent_4_Bucket_2: 21125
Critical_ROB_Stalls_Percent_4_Bucket_3: 53281
Non-critical_ROB_Stalls_Percent_4_Bucket_3: 4910
Critical_ROB_Stalls_Percent_4_Bucket_4: 18019
Non-critical_ROB_Stalls_Percent_4_Bucket_4: 1760
Critical_ROB_Stalls_Percent_4_Bucket_5: 8377
Non-critical_ROB_Stalls_Percent_4_Bucket_5: 933
Critical_ROB_Stalls_Percent_4_Bucket_6: 20578
Non-critical_ROB_Stalls_Percent_4_Bucket_6: 1205
Critical_ROB_Stalls_Percent_5_Bucket_0: 1621970
Non-critical_ROB_Stalls_Percent_5_Bucket_0: 748244
Critical_ROB_Stalls_Percent_5_Bucket_1: 612790
Non-critical_ROB_Stalls_Percent_5_Bucket_1: 81476
Critical_ROB_Stalls_Percent_5_Bucket_2: 225259
Non-critical_ROB_Stalls_Percent_5_Bucket_2: 16721
Critical_ROB_Stalls_Percent_5_Bucket_3: 54428
Non-critical_ROB_Stalls_Percent_5_Bucket_3: 3763
Critical_ROB_Stalls_Percent_5_Bucket_4: 18199
Non-critical_ROB_Stalls_Percent_5_Bucket_4: 1580
Critical_ROB_Stalls_Percent_5_Bucket_5: 8409
Non-critical_ROB_Stalls_Percent_5_Bucket_5: 901
Critical_ROB_Stalls_Percent_5_Bucket_6: 20663
Non-critical_ROB_Stalls_Percent_5_Bucket_6: 1120
Critical_ROB_Stalls_Percent_6_Bucket_0: 1764891
Non-critical_ROB_Stalls_Percent_6_Bucket_0: 605323
Critical_ROB_Stalls_Percent_6_Bucket_1: 633348
Non-critical_ROB_Stalls_Percent_6_Bucket_1: 60918
Critical_ROB_Stalls_Percent_6_Bucket_2: 231698
Non-critical_ROB_Stalls_Percent_6_Bucket_2: 10282
Critical_ROB_Stalls_Percent_6_Bucket_3: 55009
Non-critical_ROB_Stalls_Percent_6_Bucket_3: 3182
Critical_ROB_Stalls_Percent_6_Bucket_4: 18337
Non-critical_ROB_Stalls_Percent_6_Bucket_4: 1442
Critical_ROB_Stalls_Percent_6_Bucket_5: 8495
Non-critical_ROB_Stalls_Percent_6_Bucket_5: 815
Critical_ROB_Stalls_Percent_6_Bucket_6: 20813
Non-critical_ROB_Stalls_Percent_6_Bucket_6: 970
Critical_ROB_Stalls_Percent_7_Bucket_0: 1915822
Non-critical_ROB_Stalls_Percent_7_Bucket_0: 454392
Critical_ROB_Stalls_Percent_7_Bucket_1: 650299
Non-critical_ROB_Stalls_Percent_7_Bucket_1: 43967
Critical_ROB_Stalls_Percent_7_Bucket_2: 233677
Non-critical_ROB_Stalls_Percent_7_Bucket_2: 8303
Critical_ROB_Stalls_Percent_7_Bucket_3: 55801
Non-critical_ROB_Stalls_Percent_7_Bucket_3: 2390
Critical_ROB_Stalls_Percent_7_Bucket_4: 18541
Non-critical_ROB_Stalls_Percent_7_Bucket_4: 1238
Critical_ROB_Stalls_Percent_7_Bucket_5: 8507
Non-critical_ROB_Stalls_Percent_7_Bucket_5: 803
Critical_ROB_Stalls_Percent_7_Bucket_6: 20813
Non-critical_ROB_Stalls_Percent_7_Bucket_6: 970
Critical_ROB_Stalls_Percent_8_Bucket_0: 2072450
Non-critical_ROB_Stalls_Percent_8_Bucket_0: 297764
Critical_ROB_Stalls_Percent_8_Bucket_1: 660902
Non-critical_ROB_Stalls_Percent_8_Bucket_1: 33364
Critical_ROB_Stalls_Percent_8_Bucket_2: 234969
Non-critical_ROB_Stalls_Percent_8_Bucket_2: 7011
Critical_ROB_Stalls_Percent_8_Bucket_3: 56360
Non-critical_ROB_Stalls_Percent_8_Bucket_3: 1831
Critical_ROB_Stalls_Percent_8_Bucket_4: 19089
Non-critical_ROB_Stalls_Percent_8_Bucket_4: 690
Critical_ROB_Stalls_Percent_8_Bucket_5: 8937
Non-critical_ROB_Stalls_Percent_8_Bucket_5: 373
Critical_ROB_Stalls_Percent_8_Bucket_6: 21366
Non-critical_ROB_Stalls_Percent_8_Bucket_6: 417
Average ROB occupancy Load Stall Begin: 38.2107
Average ROB occupancy Load Stall End: 46.4154
Min ROB occupancy Load Stall Begin: 1
Max ROB occupancy Load Stall Begin: 352
Min ROB occupancy Load Stall End: 1
Max ROB occupancy Load Stall End: 352
Average ROB occupancy Critical Load Stall Begin: -nan
Average ROB occupancy Critical Load Stall End: -nan
Min ROB occupancy Critical Load Stall Begin: 400
Max ROB occupancy Critical Load Stall Begin: 0
Min ROB occupancy Critical Load Stall End: 400
Max ROB occupancy Critical Load Stall End: 0
 ROB Load Stall Begin Bucket Count 0: 2600297
 ROB Load Stall End Bucket Count 0: 2370214
 ROB Critical Load Stall Begin Bucket Count 0: 0
 ROB Critical Load Stall End Bucket Count 0: 0
 ROB Load Stall Begin Bucket Count 1: 549250
 ROB Load Stall End Bucket Count 1: 694266
 ROB Critical Load Stall Begin Bucket Count 1: 0
 ROB Critical Load Stall End Bucket Count 1: 0
 ROB Load Stall Begin Bucket Count 2: 179373
 ROB Load Stall End Bucket Count 2: 241980
 ROB Critical Load Stall Begin Bucket Count 2: 0
 ROB Critical Load Stall End Bucket Count 2: 0
 ROB Load Stall Begin Bucket Count 3: 41496
 ROB Load Stall End Bucket Count 3: 58191
 ROB Critical Load Stall Begin Bucket Count 3: 0
 ROB Critical Load Stall End Bucket Count 3: 0
 ROB Load Stall Begin Bucket Count 4: 15941
 ROB Load Stall End Bucket Count 4: 19779
 ROB Critical Load Stall Begin Bucket Count 4: 0
 ROB Critical Load Stall End Bucket Count 4: 0
 ROB Load Stall Begin Bucket Count 5: 8403
 ROB Load Stall End Bucket Count 5: 9310
 ROB Critical Load Stall Begin Bucket Count 5: 0
 ROB Critical Load Stall End Bucket Count 5: 0
 ROB Load Stall Begin Bucket Count 6: 20763
 ROB Load Stall End Bucket Count 6: 21783
 ROB Critical Load Stall Begin Bucket Count 6: 0
 ROB Critical Load Stall End Bucket Count 6: 0
PIST Tag Read Accesses: 2298646
PIST Read Accesses: 1149323
PIST Tag Write Accesses: 2298646
PIST Write Accesses: 1149323
Criticality detector called times: 3260609
Max global_stall_cycles_count: 1973173
Threshold Modified: 1 times, factor: -1
Sturdy critical IP cache stats: 
 Unused entries: 0
CIC Tag Read Accesses: 0
CIC Read Accesses: 0
CIC Tag Write Accesses: 0
CIC Write Accesses: 0
Wobbly critical IP cache stats: 
 Unused entries: 115
CIC Tag Read Accesses: 82718732
CIC Read Accesses: 0
CIC Tag Write Accesses: 1570
CIC Write Accesses: 0
ITLB TOTAL     ACCESS:    9949420  HIT:    9365232  MISS:     584188  HIT %:    94.1284  MISS %:    5.87158   MPKI: 11.6838
ITLB LOAD TRANSLATION ACCESS:    8220952  HIT:    8129579  MISS:      91373  HIT %:    98.8885  MISS %:    1.11146   MPKI: 1.82746
ITLB TRANSLATION FROM L1D PREFETCHER ACCESS:    1728468  HIT:    1235653  MISS:     492815  HIT %:    71.4883  MISS %:    28.5117   MPKI: 9.8563
ITLB PREFETCH  REQUESTED:          0  ISSUED:          0  USEFUL:     387087  USELESS:     105746
ITLB USEFUL LOAD PREFETCHES:     387087 PREFETCH ISSUED TO LOWER LEVEL:          0  ACCURACY: inf
ITLB TIMELY PREFETCHES:     387087 LATE PREFETCHES: 281 DROPPED PREFETCHES: 2956
ITLB PREFETCHES SAME FILL-ORIGIN LEVEL: 0 DIFFERENT FILL-ORIGIN LEVEL: 0
ITLB AVERAGE MISS LATENCY: 23304 cycles
ITLB RQ	ACCESS:   14392868	FORWARD:          0	MERGED:    4402871	TO_CACHE:    9989997

DTLB TOTAL     ACCESS:   11095259  HIT:   10644218  MISS:     451041  HIT %:    95.9348  MISS %:    4.06517   MPKI: 9.02082
DTLB LOAD TRANSLATION ACCESS:   11095259  HIT:   10644218  MISS:     451041  HIT %:    95.9348  MISS %:    4.06517   MPKI: 9.02082
DTLB PREFETCH  REQUESTED:          0  ISSUED:          0  USEFUL:          0  USELESS:          0
DTLB USEFUL LOAD PREFETCHES:          0 PREFETCH ISSUED TO LOWER LEVEL:          0  ACCURACY: -nan
DTLB TIMELY PREFETCHES:          0 LATE PREFETCHES: 0 DROPPED PREFETCHES: 0
DTLB PREFETCHES SAME FILL-ORIGIN LEVEL: 0 DIFFERENT FILL-ORIGIN LEVEL: 0
DTLB AVERAGE MISS LATENCY: 9.56251 cycles
DTLB RQ	ACCESS:   14450270	FORWARD:          0	MERGED:    3328638	TO_CACHE:   11121632

STLB TOTAL     ACCESS:    1064372  HIT:    1061302  MISS:       3070  HIT %:    99.7116  MISS %:   0.288433   MPKI: 0.0614
STLB LOAD TRANSLATION ACCESS:     542134  HIT:     539304  MISS:       2830  HIT %:     99.478  MISS %:   0.522011   MPKI: 0.0566
STLB TRANSLATION FROM L1D PREFETCHER ACCESS:     522238  HIT:     521998  MISS:        240  HIT %:     99.954  MISS %:  0.0459561   MPKI: 0.0048
STLB PREFETCH  REQUESTED:          0  ISSUED:          0  USEFUL:        196  USELESS:         43
STLB USEFUL LOAD PREFETCHES:        196 PREFETCH ISSUED TO LOWER LEVEL:          0  ACCURACY: inf
STLB TIMELY PREFETCHES:        196 LATE PREFETCHES: 0 DROPPED PREFETCHES: 2957
STLB PREFETCHES SAME FILL-ORIGIN LEVEL: 0 DIFFERENT FILL-ORIGIN LEVEL: 0
STLB AVERAGE MISS LATENCY: 94.4244 cycles
STLB RQ	ACCESS:    1075236	FORWARD:          0	MERGED:       7907	TO_CACHE:    1067329

STLB Hit, L1D data hit: 0
STLB Hit, L2C data hit: 0
STLB Hit, LLC data hit: 0
STLB Hit, LLC data miss: 0
STLB STLB hints to L2: 0
L1D TOTAL     ACCESS:   14011999  HIT:   13045058  MISS:     966941  HIT %:    93.0992  MISS %:    6.90081   MPKI: 19.3388
L1D LOAD      ACCESS:    7905637  HIT:    7219143  MISS:     686494  HIT %:    91.3164  MISS %:     8.6836   MPKI: 13.7299
L1D RFO       ACCESS:    6075210  HIT:    5806769  MISS:     268441  HIT %:    95.5814  MISS %:    4.41863   MPKI: 5.36882
L1D PREFETCH  ACCESS:      31152  HIT:      19146  MISS:      12006  HIT %:    61.4599  MISS %:    38.5401   MPKI: 0.24012
L1D PREFETCH  REQUESTED:      74113  ISSUED:      74113  USEFUL:       6032  USELESS:       6050
L1D USEFUL LOAD PREFETCHES:       6032 PREFETCH ISSUED TO LOWER LEVEL:      15979  ACCURACY: 37.7495
L1D TIMELY PREFETCHES:       6032 LATE PREFETCHES: 3961 DROPPED PREFETCHES: 0
L1D PREFETCHES SAME FILL-ORIGIN LEVEL: 15979 DIFFERENT FILL-ORIGIN LEVEL: 0
L1D AVERAGE MISS LATENCY: 132988 cycles
L1D RQ	ACCESS:   11309594	FORWARD:          0	MERGED:    3243169	TO_CACHE:    7940414
L1D WQ	ACCESS:    6576972	FORWARD:     126024	MERGED:      67116	TO_CACHE:    6509856
L1D PQ	ACCESS:      37063	FORWARD:          0	MERGED:          0	TO_CACHE:      37050

L1D UNIQUE REGIONS ACCESSED: 0
L1D REGIONS CONFLICTS: 0
L1D Cross Page Prefetch Requests: 0
L1D Same Page Prefetch Requests: 632599
L1D ROI Sum of L1D PQ occupancy: 505179
L1D PREFETCHES PUSHED FROM L2C: 0
L1I TOTAL     ACCESS:   14243197  HIT:   10669630  MISS:    3573567  HIT %:    74.9104  MISS %:    25.0896   MPKI: 71.4713
L1I LOAD      ACCESS:    9511688  HIT:    9225442  MISS:     286246  HIT %:    96.9906  MISS %:    3.00941   MPKI: 5.72492
L1I PREFETCH  ACCESS:    4731509  HIT:    1444188  MISS:    3287321  HIT %:    30.5228  MISS %:    69.4772   MPKI: 65.7464
L1I PREFETCH  REQUESTED:    4988079  ISSUED:    4974132  USEFUL:    2230518  USELESS:    1056855
L1I USEFUL LOAD PREFETCHES:    2230518 PREFETCH ISSUED TO LOWER LEVEL:    3319340  ACCURACY: 67.1976
L1I TIMELY PREFETCHES:    2230518 LATE PREFETCHES: 32019 DROPPED PREFETCHES: 7583
L1I PREFETCHES SAME FILL-ORIGIN LEVEL: 3319340 DIFFERENT FILL-ORIGIN LEVEL: 0
L1I AVERAGE MISS LATENCY: 470224 cycles
L1I RQ	ACCESS:   13478204	FORWARD:          0	MERGED:    3942799	TO_CACHE:    9535405
L1I PQ	ACCESS:    4974132	FORWARD:          0	MERGED:     116669	TO_CACHE:    4857463

BTB TOTAL     ACCESS:    6310558  HIT:    4653138  MISS:    1657420  HIT %:    73.7358  MISS %:    26.2642   MPKI: 33.1484
BTB BRANCH_DIRECT_JUMP	ACCESS:     548369  HIT:     407711  MISS:     140658
BTB BRANCH_INDIRECT	ACCESS:     189802  HIT:     158498  MISS:      31304
BTB BRANCH_CONDITIONAL	ACCESS:    3531693  HIT:    3094100  MISS:     437593
BTB BRANCH_DIRECT_CALL	ACCESS:     862205  HIT:     537301  MISS:     324904
BTB BRANCH_INDIRECT_CALL	ACCESS:     158147  HIT:      91210  MISS:      66937
BTB BRANCH_RETURN	ACCESS:    1020342  HIT:     364318  MISS:     656024
BTB BRANCH_OTHER ACCESS:          0  HIT:          0  MISS:          0

L2C TOTAL     ACCESS:    5001565  HIT:    4537616  MISS:     463949  HIT %:    90.7239  MISS %:    9.27608   MPKI: 9.27898
L2C LOAD      ACCESS:     936732  HIT:     779329  MISS:     157403  HIT %:    83.1966  MISS %:    16.8034   MPKI: 3.14806
L2C DATA LOAD MPKI: 2.47944
L2C INSTRUCTION LOAD MPKI: 0.66862
L2C RFO       ACCESS:     268426  HIT:     207343  MISS:      61083  HIT %:     77.244  MISS %:     22.756   MPKI: 1.22166
L2C PREFETCH  ACCESS:    3335318  HIT:    3111022  MISS:     224296  HIT %:    93.2751  MISS %:    6.72488   MPKI: 4.48592
L2C DATA PREFETCH MPKI: 0.1791
L2C INSTRUCTION PREFETCH MPKI: 4.30682
L2C WRITEBACK ACCESS:     452750  HIT:     433972  MISS:      18778  HIT %:    95.8525  MISS %:    4.14754   MPKI: 0.37556
L2C LOAD TRANSLATION ACCESS:       3060  HIT:        922  MISS:       2138  HIT %:    30.1307  MISS %:    69.8693   MPKI: 0.04276
L2C TRANSLATION FROM L1D PREFETCHER ACCESS:       5279  HIT:       5028  MISS:        251  HIT %:    95.2453  MISS %:    4.75469   MPKI: 0.00502
L2C PREFETCH  REQUESTED:          0  ISSUED:          0  USEFUL:       8453  USELESS:     217142
L2C USEFUL LOAD PREFETCHES:       8453 PREFETCH ISSUED TO LOWER LEVEL:     224296  ACCURACY: 3.76868
L2C TIMELY PREFETCHES:       8453 LATE PREFETCHES: 0 DROPPED PREFETCHES: 0
L2C PREFETCHES SAME FILL-ORIGIN LEVEL: 0 DIFFERENT FILL-ORIGIN LEVEL: 0
L2C AVERAGE MISS LATENCY: 41.6382 cycles
L2C RQ	ACCESS:    1213528	FORWARD:          0	MERGED:          0	TO_CACHE:    1213497
L2C WQ	ACCESS:     452750	FORWARD:         32	MERGED:          0	TO_CACHE:     452750
L2C PQ	ACCESS:    3335319	FORWARD:          0	MERGED:          0	TO_CACHE:    3335318

L2C Instructions Evicting Data 107222
L2C Translations Evicting Data 1427
L2C Data Evicting Data 95840
L2C Instructions Evicting Instructions 140585
L2C Translations Evicting Instructions 935
L2C Data Evicting Instructions 96839
L2C Instructions Evicting Translations 965
L2C Translations Evicting Translations 27
L2C Data Evicting Translations 1331
L2C Dense regions hint from L2: 0
PSCL5 TOTAL     ACCESS:       6027  HIT:       6027  MISS:          0  HIT %:        100  MISS %:          0   MPKI: 0
PSCL5 LOAD TRANSLATION ACCESS:       2830  HIT:       2830  MISS:          0  HIT %:        100  MISS %:          0   MPKI: 0
PSCL5 TRANSLATION FROM L1D PREFETCHER ACCESS:       3197  HIT:       3197  MISS:          0  HIT %:        100  MISS %:          0   MPKI: 0
PSCL5 PREFETCH  REQUESTED:          0  ISSUED:          0  USEFUL:          0  USELESS:          0
PSCL5 USEFUL LOAD PREFETCHES:          0 PREFETCH ISSUED TO LOWER LEVEL:          0  ACCURACY: -nan
PSCL5 TIMELY PREFETCHES:          0 LATE PREFETCHES: 0 DROPPED PREFETCHES: 0
PSCL5 PREFETCHES SAME FILL-ORIGIN LEVEL: 0 DIFFERENT FILL-ORIGIN LEVEL: 0

PSCL4 TOTAL     ACCESS:       5703  HIT:       5687  MISS:         16  HIT %:    99.7194  MISS %:   0.280554   MPKI: 0.00032
PSCL4 LOAD TRANSLATION ACCESS:       2510  HIT:       2494  MISS:         16  HIT %:    99.3625  MISS %:    0.63745   MPKI: 0.00032
PSCL4 TRANSLATION FROM L1D PREFETCHER ACCESS:       3193  HIT:       3193  MISS:          0  HIT %:        100  MISS %:          0   MPKI: 0
PSCL4 PREFETCH  REQUESTED:          0  ISSUED:          0  USEFUL:          0  USELESS:          0
PSCL4 USEFUL LOAD PREFETCHES:          0 PREFETCH ISSUED TO LOWER LEVEL:          0  ACCURACY: -nan
PSCL4 TIMELY PREFETCHES:          0 LATE PREFETCHES: 0 DROPPED PREFETCHES: 0
PSCL4 PREFETCHES SAME FILL-ORIGIN LEVEL: 0 DIFFERENT FILL-ORIGIN LEVEL: 0

PSCL3 TOTAL     ACCESS:       6019  HIT:       6003  MISS:         16  HIT %:    99.7342  MISS %:   0.265825   MPKI: 0.00032
PSCL3 LOAD TRANSLATION ACCESS:       2826  HIT:       2810  MISS:         16  HIT %:    99.4338  MISS %:   0.566171   MPKI: 0.00032
PSCL3 TRANSLATION FROM L1D PREFETCHER ACCESS:       3193  HIT:       3193  MISS:          0  HIT %:        100  MISS %:          0   MPKI: 0
PSCL3 PREFETCH  REQUESTED:          0  ISSUED:          0  USEFUL:          0  USELESS:          0
PSCL3 USEFUL LOAD PREFETCHES:          0 PREFETCH ISSUED TO LOWER LEVEL:          0  ACCURACY: -nan
PSCL3 TIMELY PREFETCHES:          0 LATE PREFETCHES: 0 DROPPED PREFETCHES: 0
PSCL3 PREFETCHES SAME FILL-ORIGIN LEVEL: 0 DIFFERENT FILL-ORIGIN LEVEL: 0

PSCL2 TOTAL     ACCESS:       3981  HIT:       3718  MISS:        263  HIT %:    93.3936  MISS %:    6.60638   MPKI: 0.00526
PSCL2 LOAD TRANSLATION ACCESS:       2864  HIT:       2601  MISS:        263  HIT %:     90.817  MISS %:    9.18296   MPKI: 0.00526
PSCL2 TRANSLATION FROM L1D PREFETCHER ACCESS:       1117  HIT:       1117  MISS:          0  HIT %:        100  MISS %:          0   MPKI: 0
PSCL2 PREFETCH  REQUESTED:          0  ISSUED:          0  USEFUL:          0  USELESS:          0
PSCL2 USEFUL LOAD PREFETCHES:          0 PREFETCH ISSUED TO LOWER LEVEL:          0  ACCURACY: -nan
PSCL2 TIMELY PREFETCHES:          0 LATE PREFETCHES: 0 DROPPED PREFETCHES: 0
PSCL2 PREFETCHES SAME FILL-ORIGIN LEVEL: 0 DIFFERENT FILL-ORIGIN LEVEL: 0

LLC TOTAL     ACCESS:     530537  HIT:     493114  MISS:      37423  HIT %:    92.9462  MISS %:     7.0538   MPKI: 0.74846
LLC LOAD      ACCESS:     157403  HIT:     143599  MISS:      13804  HIT %:    91.2302  MISS %:    8.76985   MPKI: 0.27608
LLC RFO       ACCESS:      61083  HIT:      42015  MISS:      19068  HIT %:    68.7835  MISS %:    31.2165   MPKI: 0.38136
LLC PREFETCH  ACCESS:     224295  HIT:     220552  MISS:       3743  HIT %:    98.3312  MISS %:    1.66878   MPKI: 0.07486
LLC WRITEBACK ACCESS:      85367  HIT:      84939  MISS:        428  HIT %:    99.4986  MISS %:   0.501365   MPKI: 0.00856
LLC LOAD TRANSLATION ACCESS:       2138  HIT:       1789  MISS:        349  HIT %:    83.6763  MISS %:    16.3237   MPKI: 0.00698
LLC TRANSLATION FROM L1D PREFETCHER ACCESS:        251  HIT:        220  MISS:         31  HIT %:    87.6494  MISS %:    12.3506   MPKI: 0.00062
LLC PREFETCH  REQUESTED:          0  ISSUED:          0  USEFUL:        946  USELESS:       8068
LLC USEFUL LOAD PREFETCHES:        946 PREFETCH ISSUED TO LOWER LEVEL:       3743  ACCURACY: 25.2738
LLC TIMELY PREFETCHES:        946 LATE PREFETCHES: 0 DROPPED PREFETCHES: 0
LLC PREFETCHES SAME FILL-ORIGIN LEVEL: 0 DIFFERENT FILL-ORIGIN LEVEL: 0
LLC AVERAGE MISS LATENCY: 158.155 cycles
LLC RQ	ACCESS:     220875	FORWARD:          0	MERGED:          0	TO_CACHE:     220875
LLC WQ	ACCESS:      85367	FORWARD:          1	MERGED:          0	TO_CACHE:      85367
LLC PQ	ACCESS:     224296	FORWARD:          0	MERGED:          0	TO_CACHE:     224295

LLC Dense regions hint to LLC: 0

RAW hits: 920704
Loads Generated: 12230298
Loads sent to L1D: 11309594
Stores Generated: 6576955
Stores sent to L1D: 6576972
Major fault: 0 Minor fault: 2897
Allocated PAGES: 2897
I-Shadow cache 408 bytes
Touched + WorthPF tables 6144 bytes 
MMA filter 174 bytes 
FNL filter 272 bytes 
TOTAL PREFETCHER STORAGE SIZE: 25174 bytes
CPU 0 L1I next line prefetcher final stats

stream: 
stream:times selected: 2074984
stream:pref_filled: 111147
stream:pref_useful: 33103
stream:pref_late: 7228
stream:misses: 19696
stream:misses_by_poll: 0

CS: 
CS:times selected: 388677
CS:pref_filled: 59889
CS:pref_useful: 43446
CS:pref_late: 3045
CS:misses: 50693
CS:misses_by_poll: 1

CPLX: 
CPLX:times selected: 1681643
CPLX:pref_filled: 37118
CPLX:pref_useful: 18937
CPLX:pref_late: 1742
CPLX:misses: 181483
CPLX:misses_by_poll: 1

NL_L1: 
NL:times selected: 10164
NL:pref_filled: 615
NL:pref_useful: 107
NL:pref_late: 29
NL:misses: 901
NL:misses_by_poll: 0

total selections: 4155468
total_filled: 12006
total_useful: 6032
total_late: 13038
total_polluted: 2
total_misses_after_warmup: 721271
conflicts: 2684836
Degree Incremented Times: 493
Degree Decremented Times: 91846

L1 IP Table Write Accesses: 4973838
L1 IP Table Read Accesses: 2289002
L1 RST Write Accesses: 1089790
L1 RST Read Accesses: 2179580
L1 CSPT Write Accesses: 1089790
L1 CSPT Read Accesses: 1919318
L1 RR Filter Tag Write Accesses: 37063
L1 RR Filter Tag Read Accesses: 4397422
L1 IP Table Tag Write Accesses: 7940414
L1 IP Table Tag Read Accesses: 7940414
L1 RST Tag Write Accesses: 0
L1 RST Tag Read Accesses: 8856246
L1 RR Filter Write Accesses: 0
L1 RR Filter Read Accesses: 161717
test: 327268

DRAM Statistics
 CHANNEL 0
 RQ ROW_BUFFER_HIT:      12924  ROW_BUFFER_MISS:      24064
 DBUS_CONGESTED:          9
 WQ ROW_BUFFER_HIT:       2230  ROW_BUFFER_MISS:      17075  FULL:          0

 AVG_CONGESTED_CYCLE: 5
 All warmup complete: 2
Channel 0 Bank busy for read cycles: 0
Channel 0 Bank busy for write cycles: 0
Channel 0
Rank 0
0banks busy for read cycles: 75057526
0banks busy for write cycles: 4483
1banks busy for read cycles: 1827240
1banks busy for write cycles: 638349
2banks busy for read cycles: 246036
2banks busy for write cycles: 226313
3banks busy for read cycles: 86392
3banks busy for write cycles: 150496
4banks busy for read cycles: 47079
4banks busy for write cycles: 119983
5banks busy for read cycles: 36407
5banks busy for write cycles: 112638
6banks busy for read cycles: 38642
6banks busy for write cycles: 92352
7banks busy for read cycles: 41579
7banks busy for write cycles: 90307
8banks busy for read cycles: 100953
8banks busy for write cycles: 121471

CPU 0 Branch Prediction Accuracy: 99.6798% MPKI: 0.58608 Average ROB Occupancy at Mispredict: 61.8675
Branch types
NOT_BRANCH: 40848088 81.6962%
BRANCH_DIRECT_JUMP: 548369 1.09674%
BRANCH_INDIRECT: 189802 0.379604%
BRANCH_CONDITIONAL: 6372728 12.7455%
BRANCH_DIRECT_CALL: 862205 1.72441%
BRANCH_INDIRECT_CALL: 158147 0.316294%
BRANCH_RETURN: 1020342 2.04068%
BRANCH_OTHER: 0 0%

DRAM PAGES: 1048576
Allocated PAGES: 2897
