Initialize SIGNATURE TABLE
ST_SET: 1
ST_WAY: 256
ST_TAG_BIT: 16
ST_TAG_MASK: ffff

Initialize PATTERN TABLE
PT_SET: 512
PT_WAY: 4
SIG_DELTA_BIT: 7
C_SIG_BIT: 4
C_DELTA_BIT: 4

Initialize PREFETCH FILTER
FILTER_SET: 1024

*** ChampSim Multicore Out-of-Order Simulator ***

Warmup Instructions: 50000000
Simulation Instructions: 50000000
Number of CPUs: 1
LLC sets: 2048
LLC ways: 16
Off-chip DRAM Size: 4096 MB Channels: 1 Width: 64-bit Data Rate: 6400 MT/s
CPU 0 runs ../IPC-traces//server_003.champsimtrace.xz
.xz
NUM_OF_IPS_IN_CRITICAL_IP_TRAINING: 64
NUM_OF_CRITICAL_IP_TRAINING_TABLE_WAYS: 2
NUM_OF_CRITICAL_IP_TRAINING_TABLE_SETS: 32
WOBBLY_CRITICAL_IP_CACHE_SETS: 32
WOBBLY_CRITICAL_IP_CACHE_WAYS: 4
BTB has LRU replacement policy
ITLB has LRU replacement policy
DTLB has LRU replacement policy
STLB has LRU replacement policy
CPU 0 L1I next line prefetcher
L1I has LRU replacement policy
L1D has LRU replacement policy
Initialize SRRIP state for L2C
Initialize DRRIP state for LLC
Heartbeat CPU 0 instructions: 10000002 cycles: 2772694 heartbeat IPC: 3.6066 cumulative IPC: 3.6066 (Simulation time: 0 hr 3 min 16 sec) 
Heartbeat CPU 0 instructions: 20000003 cycles: 5578267 heartbeat IPC: 3.56433 cumulative IPC: 3.58534 (Simulation time: 0 hr 5 min 45 sec) 
Heartbeat CPU 0 instructions: 30000002 cycles: 8339373 heartbeat IPC: 3.62174 cumulative IPC: 3.59739 (Simulation time: 0 hr 8 min 0 sec) 
Heartbeat CPU 0 instructions: 40000001 cycles: 11180967 heartbeat IPC: 3.51915 cumulative IPC: 3.57751 (Simulation time: 0 hr 10 min 4 sec) 
Heartbeat CPU 0 instructions: 50000002 cycles: 14144832 heartbeat IPC: 3.37397 cumulative IPC: 3.53486 (Simulation time: 0 hr 12 min 2 sec) 

Warmup complete CPU 0 instructions: 50000002 cycles: 14144832 (Simulation time: 0 hr 12 min 2 sec) 

Heartbeat CPU 0 instructions: 60000000 cycles: 32478500 heartbeat IPC: 0.545444 cumulative IPC: 0.545444 (Simulation time: 0 hr 14 min 33 sec) 
Heartbeat CPU 0 instructions: 70000003 cycles: 49435713 heartbeat IPC: 0.58972 cumulative IPC: 0.566719 (Simulation time: 0 hr 16 min 48 sec) 
Heartbeat CPU 0 instructions: 80000000 cycles: 66660249 heartbeat IPC: 0.580567 cumulative IPC: 0.571261 (Simulation time: 0 hr 19 min 10 sec) 
Heartbeat CPU 0 instructions: 90000001 cycles: 83515590 heartbeat IPC: 0.593284 cumulative IPC: 0.576612 (Simulation time: 0 hr 21 min 32 sec) 
Heartbeat CPU 0 instructions: 100000001 cycles: 101335654 heartbeat IPC: 0.561165 cumulative IPC: 0.573455 (Simulation time: 0 hr 23 min 36 sec) 
Finished CPU 0 instructions: 50000003 cycles: 87190823 cumulative IPC: 0.573455 (Simulation time: 0 hr 23 min 36 sec) 

ChampSim completed all CPUs

Region of Interest Statistics

CPU 0 cumulative IPC: 0.573455 instructions: 50000003 cycles: 87190823

CPU 0 Average Load ROB stall cycles: 2.33998e+07
CPU 0 Fraction of times ROB stalled by Loads: 42.3643
CPU 0 Percentage of Load stall cycles in Total stall cycles: 2.54022e+08
Issued all: 28206242
Issued LT all: 22343884
rob_not_full_when_issued_lt_all: 21223232
Issued LT one: 17406390
rob_not_full_when_issued_lt_one: 16410537
 Total stall cycles: 71594585
 Total load stall cycles: 181865923153673
CPU 0 NUM of IPS identified critical: 0
CPU 0 Num of Load IPs stalling ROB: 48072
Threshold modification factor: 0
Max PIST entries: 64
Min PIST entries: 0
Avg PIST entries: 32
Trouble in retire width: 0.902097
MaC = Marked as critical.
lt_50_percent_before_Mac: 0
gt_90_percent_before_Mac: 0
gt_75_percent_before_Mac: 0
gt_50_percent_before_Mac: 0
stall_proportion_bin_same_before_after: 0
stall_proportion_bin_lower_before_after: 0
stall_proportion_bin_upper_before_after: 0
average_stall_proportion_before: -nan
average_stall_proportion_after: -nan
Critical IP stalls, total frequency: 0
Non-critical IP stalls, total frequency: 3292597
Total Freq all stalling IPs: 3292597
stat_90_percent_critical_ip_stalls_freq: 2963416
stat_90_percent_non_critical_ip_stalls_freq: 329181
Critical_IP_ROB_Stalls_Bucket_0: 0
Non-critical_IP_ROB_Stalls_Bucket_0: 1904608
Critical_IP_ROB_Stalls_Bucket_1: 0
Non-critical_IP_ROB_Stalls_Bucket_1: 871805
Critical_IP_ROB_Stalls_Bucket_2: 0
Non-critical_IP_ROB_Stalls_Bucket_2: 316955
Critical_IP_ROB_Stalls_Bucket_3: 0
Non-critical_IP_ROB_Stalls_Bucket_3: 94874
Critical_IP_ROB_Stalls_Bucket_4: 0
Non-critical_IP_ROB_Stalls_Bucket_4: 39306
Critical_IP_ROB_Stalls_Bucket_5: 0
Non-critical_IP_ROB_Stalls_Bucket_5: 20748
Critical_IP_ROB_Stalls_Bucket_6: 0
Non-critical_IP_ROB_Stalls_Bucket_6: 44301
0 => IPs accounting for >50 percent of stalls, 1 => 55, 2 => 60, 3 => 65 and so on till 90.
percent50: 50.0096 num IPs:  611
percent55: 55.0187 num IPs: 831
percent60: 60.0033 num IPs: 1111
percent65: 65.0016 num IPs: 1499
percent70: 70.0031 num IPs: 2034
percent75: 75.0039 num IPs: 2814
percent80: 80.0011 num IPs: 4025
percent85: 85 num IPs: 6058
percent90: 90.001 num IPs: 9535
Critical_ROB_Stalls_Percent_0_Bucket_0: 828662
Non-critical_ROB_Stalls_Percent_0_Bucket_0: 1075946
Critical_ROB_Stalls_Percent_0_Bucket_1: 513977
Non-critical_ROB_Stalls_Percent_0_Bucket_1: 357828
Critical_ROB_Stalls_Percent_0_Bucket_2: 192198
Non-critical_ROB_Stalls_Percent_0_Bucket_2: 124757
Critical_ROB_Stalls_Percent_0_Bucket_3: 51951
Non-critical_ROB_Stalls_Percent_0_Bucket_3: 42923
Critical_ROB_Stalls_Percent_0_Bucket_4: 20978
Non-critical_ROB_Stalls_Percent_0_Bucket_4: 18328
Critical_ROB_Stalls_Percent_0_Bucket_5: 10673
Non-critical_ROB_Stalls_Percent_0_Bucket_5: 10075
Critical_ROB_Stalls_Percent_0_Bucket_6: 28176
Non-critical_ROB_Stalls_Percent_0_Bucket_6: 16125
Critical_ROB_Stalls_Percent_1_Bucket_0: 916022
Non-critical_ROB_Stalls_Percent_1_Bucket_0: 988586
Critical_ROB_Stalls_Percent_1_Bucket_1: 561865
Non-critical_ROB_Stalls_Percent_1_Bucket_1: 309940
Critical_ROB_Stalls_Percent_1_Bucket_2: 210959
Non-critical_ROB_Stalls_Percent_1_Bucket_2: 105996
Critical_ROB_Stalls_Percent_1_Bucket_3: 57002
Non-critical_ROB_Stalls_Percent_1_Bucket_3: 37872
Critical_ROB_Stalls_Percent_1_Bucket_4: 23162
Non-critical_ROB_Stalls_Percent_1_Bucket_4: 16144
Critical_ROB_Stalls_Percent_1_Bucket_5: 11870
Non-critical_ROB_Stalls_Percent_1_Bucket_5: 8878
Critical_ROB_Stalls_Percent_1_Bucket_6: 30667
Non-critical_ROB_Stalls_Percent_1_Bucket_6: 13634
Critical_ROB_Stalls_Percent_2_Bucket_0: 1013233
Non-critical_ROB_Stalls_Percent_2_Bucket_0: 891375
Critical_ROB_Stalls_Percent_2_Bucket_1: 605732
Non-critical_ROB_Stalls_Percent_2_Bucket_1: 266073
Critical_ROB_Stalls_Percent_2_Bucket_2: 224051
Non-critical_ROB_Stalls_Percent_2_Bucket_2: 92904
Critical_ROB_Stalls_Percent_2_Bucket_3: 61331
Non-critical_ROB_Stalls_Percent_2_Bucket_3: 33543
Critical_ROB_Stalls_Percent_2_Bucket_4: 25084
Non-critical_ROB_Stalls_Percent_2_Bucket_4: 14222
Critical_ROB_Stalls_Percent_2_Bucket_5: 12876
Non-critical_ROB_Stalls_Percent_2_Bucket_5: 7872
Critical_ROB_Stalls_Percent_2_Bucket_6: 33359
Non-critical_ROB_Stalls_Percent_2_Bucket_6: 10942
Critical_ROB_Stalls_Percent_3_Bucket_0: 1110553
Non-critical_ROB_Stalls_Percent_3_Bucket_0: 794055
Critical_ROB_Stalls_Percent_3_Bucket_1: 648887
Non-critical_ROB_Stalls_Percent_3_Bucket_1: 222918
Critical_ROB_Stalls_Percent_3_Bucket_2: 238446
Non-critical_ROB_Stalls_Percent_3_Bucket_2: 78509
Critical_ROB_Stalls_Percent_3_Bucket_3: 66287
Non-critical_ROB_Stalls_Percent_3_Bucket_3: 28587
Critical_ROB_Stalls_Percent_3_Bucket_4: 27210
Non-critical_ROB_Stalls_Percent_3_Bucket_4: 12096
Critical_ROB_Stalls_Percent_3_Bucket_5: 13935
Non-critical_ROB_Stalls_Percent_3_Bucket_5: 6813
Critical_ROB_Stalls_Percent_3_Bucket_6: 34922
Non-critical_ROB_Stalls_Percent_3_Bucket_6: 9379
Critical_ROB_Stalls_Percent_4_Bucket_0: 1204434
Non-critical_ROB_Stalls_Percent_4_Bucket_0: 700174
Critical_ROB_Stalls_Percent_4_Bucket_1: 693501
Non-critical_ROB_Stalls_Percent_4_Bucket_1: 178304
Critical_ROB_Stalls_Percent_4_Bucket_2: 252060
Non-critical_ROB_Stalls_Percent_4_Bucket_2: 64895
Critical_ROB_Stalls_Percent_4_Bucket_3: 71580
Non-critical_ROB_Stalls_Percent_4_Bucket_3: 23294
Critical_ROB_Stalls_Percent_4_Bucket_4: 29892
Non-critical_ROB_Stalls_Percent_4_Bucket_4: 9414
Critical_ROB_Stalls_Percent_4_Bucket_5: 15849
Non-critical_ROB_Stalls_Percent_4_Bucket_5: 4899
Critical_ROB_Stalls_Percent_4_Bucket_6: 37601
Non-critical_ROB_Stalls_Percent_4_Bucket_6: 6700
Critical_ROB_Stalls_Percent_5_Bucket_0: 1308884
Non-critical_ROB_Stalls_Percent_5_Bucket_0: 595724
Critical_ROB_Stalls_Percent_5_Bucket_1: 732752
Non-critical_ROB_Stalls_Percent_5_Bucket_1: 139053
Critical_ROB_Stalls_Percent_5_Bucket_2: 264541
Non-critical_ROB_Stalls_Percent_5_Bucket_2: 52414
Critical_ROB_Stalls_Percent_5_Bucket_3: 75950
Non-critical_ROB_Stalls_Percent_5_Bucket_3: 18924
Critical_ROB_Stalls_Percent_5_Bucket_4: 31676
Non-critical_ROB_Stalls_Percent_5_Bucket_4: 7630
Critical_ROB_Stalls_Percent_5_Bucket_5: 16916
Non-critical_ROB_Stalls_Percent_5_Bucket_5: 3832
Critical_ROB_Stalls_Percent_5_Bucket_6: 38862
Non-critical_ROB_Stalls_Percent_5_Bucket_6: 5439
Critical_ROB_Stalls_Percent_6_Bucket_0: 1415087
Non-critical_ROB_Stalls_Percent_6_Bucket_0: 489521
Critical_ROB_Stalls_Percent_6_Bucket_1: 768465
Non-critical_ROB_Stalls_Percent_6_Bucket_1: 103340
Critical_ROB_Stalls_Percent_6_Bucket_2: 277905
Non-critical_ROB_Stalls_Percent_6_Bucket_2: 39050
Critical_ROB_Stalls_Percent_6_Bucket_3: 80869
Non-critical_ROB_Stalls_Percent_6_Bucket_3: 14005
Critical_ROB_Stalls_Percent_6_Bucket_4: 33852
Non-critical_ROB_Stalls_Percent_6_Bucket_4: 5454
Critical_ROB_Stalls_Percent_6_Bucket_5: 17969
Non-critical_ROB_Stalls_Percent_6_Bucket_5: 2779
Critical_ROB_Stalls_Percent_6_Bucket_6: 39955
Non-critical_ROB_Stalls_Percent_6_Bucket_6: 4346
Critical_ROB_Stalls_Percent_7_Bucket_0: 1527339
Non-critical_ROB_Stalls_Percent_7_Bucket_0: 377269
Critical_ROB_Stalls_Percent_7_Bucket_1: 800951
Non-critical_ROB_Stalls_Percent_7_Bucket_1: 70854
Critical_ROB_Stalls_Percent_7_Bucket_2: 288353
Non-critical_ROB_Stalls_Percent_7_Bucket_2: 28602
Critical_ROB_Stalls_Percent_7_Bucket_3: 85335
Non-critical_ROB_Stalls_Percent_7_Bucket_3: 9539
Critical_ROB_Stalls_Percent_7_Bucket_4: 35855
Non-critical_ROB_Stalls_Percent_7_Bucket_4: 3451
Critical_ROB_Stalls_Percent_7_Bucket_5: 19018
Non-critical_ROB_Stalls_Percent_7_Bucket_5: 1730
Critical_ROB_Stalls_Percent_7_Bucket_6: 41822
Non-critical_ROB_Stalls_Percent_7_Bucket_6: 2479
Critical_ROB_Stalls_Percent_8_Bucket_0: 1643894
Non-critical_ROB_Stalls_Percent_8_Bucket_0: 260714
Critical_ROB_Stalls_Percent_8_Bucket_1: 830458
Non-critical_ROB_Stalls_Percent_8_Bucket_1: 41347
Critical_ROB_Stalls_Percent_8_Bucket_2: 299765
Non-critical_ROB_Stalls_Percent_8_Bucket_2: 17190
Critical_ROB_Stalls_Percent_8_Bucket_3: 89185
Non-critical_ROB_Stalls_Percent_8_Bucket_3: 5689
Critical_ROB_Stalls_Percent_8_Bucket_4: 37373
Non-critical_ROB_Stalls_Percent_8_Bucket_4: 1933
Critical_ROB_Stalls_Percent_8_Bucket_5: 19773
Non-critical_ROB_Stalls_Percent_8_Bucket_5: 975
Critical_ROB_Stalls_Percent_8_Bucket_6: 42968
Non-critical_ROB_Stalls_Percent_8_Bucket_6: 1333
Average ROB occupancy Load Stall Begin: 49.1619
Average ROB occupancy Load Stall End: 58.8712
Min ROB occupancy Load Stall Begin: 1
Max ROB occupancy Load Stall Begin: 352
Min ROB occupancy Load Stall End: 1
Max ROB occupancy Load Stall End: 352
Average ROB occupancy Critical Load Stall Begin: -nan
Average ROB occupancy Critical Load Stall End: -nan
Min ROB occupancy Critical Load Stall Begin: 400
Max ROB occupancy Critical Load Stall Begin: 0
Min ROB occupancy Critical Load Stall End: 400
Max ROB occupancy Critical Load Stall End: 0
 ROB Load Stall Begin Bucket Count 0: 2220416
 ROB Load Stall End Bucket Count 0: 1904608
 ROB Critical Load Stall Begin Bucket Count 0: 0
 ROB Critical Load Stall End Bucket Count 0: 0
 ROB Load Stall Begin Bucket Count 1: 672710
 ROB Load Stall End Bucket Count 1: 871805
 ROB Critical Load Stall Begin Bucket Count 1: 0
 ROB Critical Load Stall End Bucket Count 1: 0
 ROB Load Stall Begin Bucket Count 2: 240727
 ROB Load Stall End Bucket Count 2: 316955
 ROB Critical Load Stall Begin Bucket Count 2: 0
 ROB Critical Load Stall End Bucket Count 2: 0
 ROB Load Stall Begin Bucket Count 3: 69628
 ROB Load Stall End Bucket Count 3: 94874
 ROB Critical Load Stall Begin Bucket Count 3: 0
 ROB Critical Load Stall End Bucket Count 3: 0
 ROB Load Stall Begin Bucket Count 4: 31379
 ROB Load Stall End Bucket Count 4: 39306
 ROB Critical Load Stall Begin Bucket Count 4: 0
 ROB Critical Load Stall End Bucket Count 4: 0
 ROB Load Stall Begin Bucket Count 5: 18021
 ROB Load Stall End Bucket Count 5: 20748
 ROB Critical Load Stall Begin Bucket Count 5: 0
 ROB Critical Load Stall End Bucket Count 5: 0
 ROB Load Stall Begin Bucket Count 6: 39716
 ROB Load Stall End Bucket Count 6: 44301
 ROB Critical Load Stall Begin Bucket Count 6: 0
 ROB Critical Load Stall End Bucket Count 6: 0
PIST Tag Read Accesses: 2281608
PIST Read Accesses: 1140804
PIST Tag Write Accesses: 2281608
PIST Write Accesses: 1140804
Criticality detector called times: 2979175
Max global_stall_cycles_count: 3465948
Threshold Modified: 0 times, factor: 0
Sturdy critical IP cache stats: 
 Unused entries: 0
CIC Tag Read Accesses: 0
CIC Read Accesses: 0
CIC Tag Write Accesses: 0
CIC Write Accesses: 0
Wobbly critical IP cache stats: 
 Unused entries: 17
CIC Tag Read Accesses: 150019731
CIC Read Accesses: 0
CIC Tag Write Accesses: 26082
CIC Write Accesses: 0
ITLB TOTAL     ACCESS:    9184943  HIT:    9024362  MISS:     160581  HIT %:    98.2517  MISS %:    1.74831   MPKI: 3.21162
ITLB LOAD TRANSLATION ACCESS:    8302493  HIT:    8232908  MISS:      69585  HIT %:    99.1619  MISS %:   0.838122   MPKI: 1.3917
ITLB TRANSLATION FROM L1D PREFETCHER ACCESS:     882450  HIT:     791454  MISS:      90996  HIT %:    89.6883  MISS %:    10.3117   MPKI: 1.81992
ITLB PREFETCH  REQUESTED:          0  ISSUED:          0  USEFUL:      73925  USELESS:      17069
ITLB USEFUL LOAD PREFETCHES:      73925 PREFETCH ISSUED TO LOWER LEVEL:          0  ACCURACY: inf
ITLB TIMELY PREFETCHES:      73925 LATE PREFETCHES: 548 DROPPED PREFETCHES: 2994
ITLB PREFETCHES SAME FILL-ORIGIN LEVEL: 0 DIFFERENT FILL-ORIGIN LEVEL: 0
ITLB AVERAGE MISS LATENCY: 240017 cycles
ITLB RQ	ACCESS:   12112516	FORWARD:          0	MERGED:    2900123	TO_CACHE:    9212393

DTLB TOTAL     ACCESS:   10583911  HIT:   10151110  MISS:     432801  HIT %:    95.9108  MISS %:    4.08924   MPKI: 8.65602
DTLB LOAD TRANSLATION ACCESS:   10583911  HIT:   10151110  MISS:     432801  HIT %:    95.9108  MISS %:    4.08924   MPKI: 8.65602
DTLB PREFETCH  REQUESTED:          0  ISSUED:          0  USEFUL:          0  USELESS:          0
DTLB USEFUL LOAD PREFETCHES:          0 PREFETCH ISSUED TO LOWER LEVEL:          0  ACCURACY: -nan
DTLB TIMELY PREFETCHES:          0 LATE PREFETCHES: 0 DROPPED PREFETCHES: 0
DTLB PREFETCHES SAME FILL-ORIGIN LEVEL: 0 DIFFERENT FILL-ORIGIN LEVEL: 0
DTLB AVERAGE MISS LATENCY: 16.549 cycles
DTLB RQ	ACCESS:   13124003	FORWARD:          0	MERGED:    2511333	TO_CACHE:   10612670

STLB TOTAL     ACCESS:     593377  HIT:     511456  MISS:      81921  HIT %:    86.1941  MISS %:    13.8059   MPKI: 1.63842
STLB LOAD TRANSLATION ACCESS:     501838  HIT:     432517  MISS:      69321  HIT %:    86.1866  MISS %:    13.8134   MPKI: 1.38642
STLB TRANSLATION FROM L1D PREFETCHER ACCESS:      91539  HIT:      78939  MISS:      12600  HIT %:    86.2354  MISS %:    13.7646   MPKI: 0.252
STLB PREFETCH  REQUESTED:          0  ISSUED:          0  USEFUL:       6483  USELESS:       6081
STLB USEFUL LOAD PREFETCHES:       6483 PREFETCH ISSUED TO LOWER LEVEL:          0  ACCURACY: inf
STLB TIMELY PREFETCHES:       6483 LATE PREFETCHES: 3 DROPPED PREFETCHES: 2994
STLB PREFETCHES SAME FILL-ORIGIN LEVEL: 0 DIFFERENT FILL-ORIGIN LEVEL: 0
STLB AVERAGE MISS LATENCY: 56.6304 cycles
STLB RQ	ACCESS:     596377	FORWARD:          0	MERGED:          2	TO_CACHE:     596375

STLB Hit, L1D data hit: 0
STLB Hit, L2C data hit: 0
STLB Hit, LLC data hit: 0
STLB Hit, LLC data miss: 0
STLB STLB hints to L2: 0
L1D TOTAL     ACCESS:   12879378  HIT:   12151346  MISS:     728032  HIT %:    94.3473  MISS %:     5.6527   MPKI: 14.5606
L1D LOAD      ACCESS:    8331497  HIT:    7730959  MISS:     600538  HIT %:     92.792  MISS %:    7.20804   MPKI: 12.0108
L1D RFO       ACCESS:    4547881  HIT:    4420387  MISS:     127494  HIT %:    97.1966  MISS %:    2.80337   MPKI: 2.54988
L1D PREFETCH  REQUESTED:          0  ISSUED:          0  USEFUL:          0  USELESS:          0
L1D USEFUL LOAD PREFETCHES:          0 PREFETCH ISSUED TO LOWER LEVEL:          0  ACCURACY: -nan
L1D TIMELY PREFETCHES:          0 LATE PREFETCHES: 0 DROPPED PREFETCHES: 0
L1D PREFETCHES SAME FILL-ORIGIN LEVEL: 0 DIFFERENT FILL-ORIGIN LEVEL: 0
L1D AVERAGE MISS LATENCY: 60.7147 cycles
L1D RQ	ACCESS:   12662666	FORWARD:          0	MERGED:    4179526	TO_CACHE:    8397611
L1D WQ	ACCESS:    4823332	FORWARD:      85529	MERGED:      96940	TO_CACHE:    4726392

L1D UNIQUE REGIONS ACCESSED: 0
L1D REGIONS CONFLICTS: 0
L1D Cross Page Prefetch Requests: 0
L1D Same Page Prefetch Requests: 0
L1D ROI Sum of L1D PQ occupancy: 0
L1D PREFETCHES PUSHED FROM L2C: 0
L1I TOTAL     ACCESS:   11982738  HIT:   10606062  MISS:    1376676  HIT %:    88.5112  MISS %:    11.4888   MPKI: 27.5335
L1I LOAD      ACCESS:    9936842  HIT:    9685181  MISS:     251661  HIT %:    97.4674  MISS %:    2.53261   MPKI: 5.03322
L1I PREFETCH  ACCESS:    2045896  HIT:     920881  MISS:    1125015  HIT %:    45.0111  MISS %:    54.9889   MPKI: 22.5003
L1I PREFETCH  REQUESTED:    2253394  ISSUED:    2249108  USEFUL:     723390  USELESS:     401585
L1I USEFUL LOAD PREFETCHES:     723390 PREFETCH ISSUED TO LOWER LEVEL:    1152368  ACCURACY: 62.7742
L1I TIMELY PREFETCHES:     723390 LATE PREFETCHES: 27353 DROPPED PREFETCHES: 9455
L1I PREFETCHES SAME FILL-ORIGIN LEVEL: 1152368 DIFFERENT FILL-ORIGIN LEVEL: 0
L1I AVERAGE MISS LATENCY: 1.24093e+06 cycles
L1I RQ	ACCESS:   14282170	FORWARD:          0	MERGED:    4321852	TO_CACHE:    9960318
L1I PQ	ACCESS:    2249108	FORWARD:          0	MERGED:      96910	TO_CACHE:    2152198

BTB TOTAL     ACCESS:    6374145  HIT:    5543345  MISS:     830800  HIT %:    86.9661  MISS %:    13.0339   MPKI: 16.616
BTB BRANCH_DIRECT_JUMP	ACCESS:     497927  HIT:     456451  MISS:      41476
BTB BRANCH_INDIRECT	ACCESS:     130586  HIT:     102079  MISS:      28507
BTB BRANCH_CONDITIONAL	ACCESS:    3697298  HIT:    3536491  MISS:     160807
BTB BRANCH_DIRECT_CALL	ACCESS:     625806  HIT:     549571  MISS:      76235
BTB BRANCH_INDIRECT_CALL	ACCESS:     389785  HIT:     241920  MISS:     147865
BTB BRANCH_RETURN	ACCESS:    1032743  HIT:     656833  MISS:     375910
BTB BRANCH_OTHER ACCESS:          0  HIT:          0  MISS:          0

L2C TOTAL     ACCESS:    2547139  HIT:    1656335  MISS:     890804  HIT %:    65.0273  MISS %:    34.9727   MPKI: 17.8161
L2C LOAD      ACCESS:     824824  HIT:     447255  MISS:     377569  HIT %:    54.2243  MISS %:    45.7757   MPKI: 7.55138
L2C DATA LOAD MPKI: 5.7798
L2C INSTRUCTION LOAD MPKI: 1.77158
L2C RFO       ACCESS:     127486  HIT:      47632  MISS:      79854  HIT %:    37.3625  MISS %:    62.6375   MPKI: 1.59708
L2C PREFETCH  ACCESS:    1221256  HIT:     843539  MISS:     377717  HIT %:    69.0714  MISS %:    30.9286   MPKI: 7.55434
L2C DATA PREFETCH MPKI: 0.02464
L2C INSTRUCTION PREFETCH MPKI: 7.5297
L2C WRITEBACK ACCESS:     266812  HIT:     253062  MISS:      13750  HIT %:    94.8466  MISS %:    5.15344   MPKI: 0.275
L2C LOAD TRANSLATION ACCESS:      87766  HIT:      51314  MISS:      36452  HIT %:    58.4668  MISS %:    41.5332   MPKI: 0.72904
L2C TRANSLATION FROM L1D PREFETCHER ACCESS:      18995  HIT:      13533  MISS:       5462  HIT %:    71.2451  MISS %:    28.7549   MPKI: 0.10924
L2C PREFETCH  REQUESTED:     364793  ISSUED:     364793  USEFUL:      14706  USELESS:     366450
L2C USEFUL LOAD PREFETCHES:      14706 PREFETCH ISSUED TO LOWER LEVEL:     458783  ACCURACY: 3.20544
L2C TIMELY PREFETCHES:      14706 LATE PREFETCHES: 59 DROPPED PREFETCHES: 0
L2C PREFETCHES SAME FILL-ORIGIN LEVEL: 1350 DIFFERENT FILL-ORIGIN LEVEL: 81007
L2C AVERAGE MISS LATENCY: 65.8032 cycles
L2C RQ	ACCESS:    1059102	FORWARD:          0	MERGED:          0	TO_CACHE:    1059072
L2C WQ	ACCESS:     266812	FORWARD:         30	MERGED:          0	TO_CACHE:     266812
L2C PQ	ACCESS:    1517161	FORWARD:          0	MERGED:     212432	TO_CACHE:    1304729

L2C Instructions Evicting Data 196973
L2C Translations Evicting Data 17723
L2C Data Evicting Data 165847
L2C Instructions Evicting Instructions 246295
L2C Translations Evicting Instructions 22498
L2C Data Evicting Instructions 186786
L2C Instructions Evicting Translations 21796
L2C Translations Evicting Translations 1693
L2C Data Evicting Translations 17443
L2C Dense regions hint from L2: 0
PSCL5 TOTAL     ACCESS:      84916  HIT:      84916  MISS:          0  HIT %:        100  MISS %:          0   MPKI: 0
PSCL5 LOAD TRANSLATION ACCESS:      69319  HIT:      69319  MISS:          0  HIT %:        100  MISS %:          0   MPKI: 0
PSCL5 TRANSLATION FROM L1D PREFETCHER ACCESS:      15597  HIT:      15597  MISS:          0  HIT %:        100  MISS %:          0   MPKI: 0
PSCL5 PREFETCH  REQUESTED:          0  ISSUED:          0  USEFUL:          0  USELESS:          0
PSCL5 USEFUL LOAD PREFETCHES:          0 PREFETCH ISSUED TO LOWER LEVEL:          0  ACCURACY: -nan
PSCL5 TIMELY PREFETCHES:          0 LATE PREFETCHES: 0 DROPPED PREFETCHES: 0
PSCL5 PREFETCHES SAME FILL-ORIGIN LEVEL: 0 DIFFERENT FILL-ORIGIN LEVEL: 0

PSCL4 TOTAL     ACCESS:      78997  HIT:      78804  MISS:        193  HIT %:    99.7557  MISS %:   0.244313   MPKI: 0.00386
PSCL4 LOAD TRANSLATION ACCESS:      64704  HIT:      64511  MISS:        193  HIT %:    99.7017  MISS %:   0.298281   MPKI: 0.00386
PSCL4 TRANSLATION FROM L1D PREFETCHER ACCESS:      14293  HIT:      14293  MISS:          0  HIT %:        100  MISS %:          0   MPKI: 0
PSCL4 PREFETCH  REQUESTED:          0  ISSUED:          0  USEFUL:          0  USELESS:          0
PSCL4 USEFUL LOAD PREFETCHES:          0 PREFETCH ISSUED TO LOWER LEVEL:          0  ACCURACY: -nan
PSCL4 TIMELY PREFETCHES:          0 LATE PREFETCHES: 0 DROPPED PREFETCHES: 0
PSCL4 PREFETCHES SAME FILL-ORIGIN LEVEL: 0 DIFFERENT FILL-ORIGIN LEVEL: 0

PSCL3 TOTAL     ACCESS:      83829  HIT:      83334  MISS:        495  HIT %:    99.4095  MISS %:   0.590488   MPKI: 0.0099
PSCL3 LOAD TRANSLATION ACCESS:      69101  HIT:      68606  MISS:        495  HIT %:    99.2837  MISS %:   0.716343   MPKI: 0.0099
PSCL3 TRANSLATION FROM L1D PREFETCHER ACCESS:      14728  HIT:      14728  MISS:          0  HIT %:        100  MISS %:          0   MPKI: 0
PSCL3 PREFETCH  REQUESTED:          0  ISSUED:          0  USEFUL:          0  USELESS:          0
PSCL3 USEFUL LOAD PREFETCHES:          0 PREFETCH ISSUED TO LOWER LEVEL:          0  ACCURACY: -nan
PSCL3 TIMELY PREFETCHES:          0 LATE PREFETCHES: 0 DROPPED PREFETCHES: 0
PSCL3 PREFETCHES SAME FILL-ORIGIN LEVEL: 0 DIFFERENT FILL-ORIGIN LEVEL: 0

PSCL2 TOTAL     ACCESS:      84014  HIT:      64074  MISS:      19940  HIT %:    76.2659  MISS %:    23.7341   MPKI: 0.3988
PSCL2 LOAD TRANSLATION ACCESS:      71344  HIT:      51404  MISS:      19940  HIT %:    72.0509  MISS %:    27.9491   MPKI: 0.3988
PSCL2 TRANSLATION FROM L1D PREFETCHER ACCESS:      12670  HIT:      12670  MISS:          0  HIT %:        100  MISS %:          0   MPKI: 0
PSCL2 PREFETCH  REQUESTED:          0  ISSUED:          0  USEFUL:          0  USELESS:          0
PSCL2 USEFUL LOAD PREFETCHES:          0 PREFETCH ISSUED TO LOWER LEVEL:          0  ACCURACY: -nan
PSCL2 TIMELY PREFETCHES:          0 LATE PREFETCHES: 0 DROPPED PREFETCHES: 0
PSCL2 PREFETCHES SAME FILL-ORIGIN LEVEL: 0 DIFFERENT FILL-ORIGIN LEVEL: 0

LLC TOTAL     ACCESS:    1095992  HIT:     894058  MISS:     201934  HIT %:    81.5752  MISS %:    18.4248   MPKI: 4.03868
LLC LOAD      ACCESS:     377510  HIT:     294384  MISS:      83126  HIT %:    77.9805  MISS %:    22.0195   MPKI: 1.66252
LLC RFO       ACCESS:      79853  HIT:      28386  MISS:      51467  HIT %:    35.5478  MISS %:    64.4522   MPKI: 1.02934
LLC PREFETCH  ACCESS:     454305  HIT:     397790  MISS:      56515  HIT %:    87.5601  MISS %:    12.4399   MPKI: 1.1303
LLC WRITEBACK ACCESS:     142410  HIT:     136203  MISS:       6207  HIT %:    95.6415  MISS %:    4.35854   MPKI: 0.12414
LLC LOAD TRANSLATION ACCESS:      36452  HIT:      32164  MISS:       4288  HIT %:    88.2366  MISS %:    11.7634   MPKI: 0.08576
LLC TRANSLATION FROM L1D PREFETCHER ACCESS:       5462  HIT:       5131  MISS:        331  HIT %:    93.9399  MISS %:    6.06005   MPKI: 0.00662
LLC PREFETCH  REQUESTED:          0  ISSUED:          0  USEFUL:       5273  USELESS:      48323
LLC USEFUL LOAD PREFETCHES:       5273 PREFETCH ISSUED TO LOWER LEVEL:      56980  ACCURACY: 9.25412
LLC TIMELY PREFETCHES:       5273 LATE PREFETCHES: 465 DROPPED PREFETCHES: 0
LLC PREFETCHES SAME FILL-ORIGIN LEVEL: 14179 DIFFERENT FILL-ORIGIN LEVEL: 0
LLC AVERAGE MISS LATENCY: 170.389 cycles
LLC RQ	ACCESS:     499278	FORWARD:          0	MERGED:          0	TO_CACHE:     499277
LLC WQ	ACCESS:     142410	FORWARD:          1	MERGED:          0	TO_CACHE:     142410
LLC PQ	ACCESS:     458783	FORWARD:          0	MERGED:       2817	TO_CACHE:     455966

LLC Dense regions hint to LLC: 0

RAW hits: 1028347
Loads Generated: 13691013
Loads sent to L1D: 12662666
Stores Generated: 4823327
Stores sent to L1D: 4823332
Major fault: 0 Minor fault: 8067
Allocated PAGES: 8067
I-Shadow cache 408 bytes
Touched + WorthPF tables 6144 bytes 
MMA filter 174 bytes 
FNL filter 272 bytes 
TOTAL PREFETCHER STORAGE SIZE: 25174 bytes
CPU 0 L1I next line prefetcher final stats
 All Calls: 3811870
 Critical Calls: 655724
------------------
Depth Distribution
------------------
depth 0: 0
depth 1: 614312
depth 2: 232272
depth 3: 6429
depth 4: 224
depth 5: 0
depth 6: 0
depth 7: 0
depth 8: 0
depth 9: 0
depth 10: 0
depth 11: 0
depth 12: 0
depth 13: 0
depth 14: 0
depth 15: 0
depth 16: 0
depth 17: 0
depth 18: 0
depth 19: 0
depth 20: 0
depth 21: 0
depth 22: 0
depth 23: 0
depth 24: 0
depth 25: 0
depth 26: 0
depth 27: 0
depth 28: 0
depth 29: 0
Total: 853237
-----------------------------
-----------------------------
	Captured at Filter
-----------------------------
depth 0: 0
depth 1: 9481
depth 2: 4593
depth 3: 668
depth 4: 2
depth 5: 0
depth 6: 0
depth 7: 0
depth 8: 0
depth 9: 0
depth 10: 0
depth 11: 0
depth 12: 0
depth 13: 0
depth 14: 0
depth 15: 0
depth 16: 0
depth 17: 0
depth 18: 0
depth 19: 0
depth 20: 0
depth 21: 0
depth 22: 0
depth 23: 0
depth 24: 0
depth 25: 0
depth 26: 0
depth 27: 0
depth 28: 0
depth 29: 0
-----------------------------
-----------------------------
		Lost at Page
-----------------------------
depth 0: 0
depth 1: 11617
depth 2: 7149
depth 3: 177
depth 4: 15
depth 5: 0
depth 6: 0
depth 7: 0
depth 8: 0
depth 9: 0
depth 10: 0
depth 11: 0
depth 12: 0
depth 13: 0
depth 14: 0
depth 15: 0
depth 16: 0
depth 17: 0
depth 18: 0
depth 19: 0
depth 20: 0
depth 21: 0
depth 22: 0
depth 23: 0
depth 24: 0
depth 25: 0
depth 26: 0
depth 27: 0
depth 28: 0
depth 29: 0
-----------------------------
-----------------------------
	Lost due to PQ Size
-----------------------------
0
-----------------------------
ST read accesses: 273946
ST write accesses: 27523
PT read accesses: 3966411
PT write accesses: 372905
FILTER read accesses: 1563081
FILTER write accesses: 910610
GHR read accesses: 250951
GHR write accesses: 7587
GHR counter read accesses: 3309862
GHR counter write accesses: 319979
ST tag read accesses: 130582608
ST tag write accesses: 11896850

DRAM Statistics
 CHANNEL 0
 RQ ROW_BUFFER_HIT:      39047  ROW_BUFFER_MISS:     156679
 DBUS_CONGESTED:        119
 WQ ROW_BUFFER_HIT:      18524  ROW_BUFFER_MISS:      73467  FULL:          0

 AVG_CONGESTED_CYCLE: 4
 All warmup complete: 2
Channel 0 Bank busy for read cycles: 0
Channel 0 Bank busy for write cycles: 0
Channel 0
Rank 0
0banks busy for read cycles: 63954193
0banks busy for write cycles: 31216
1banks busy for read cycles: 10283230
1banks busy for write cycles: 4360577
2banks busy for read cycles: 2792279
2banks busy for write cycles: 1416974
3banks busy for read cycles: 889948
3banks busy for write cycles: 639193
4banks busy for read cycles: 424875
4banks busy for write cycles: 357274
5banks busy for read cycles: 265269
5banks busy for write cycles: 244949
6banks busy for read cycles: 235523
6banks busy for write cycles: 208536
7banks busy for read cycles: 168298
7banks busy for write cycles: 211023
8banks busy for read cycles: 173667
8banks busy for write cycles: 533800

CPU 0 Branch Prediction Accuracy: 95.439% MPKI: 9.02702 Average ROB Occupancy at Mispredict: 42.5101
Branch types
NOT_BRANCH: 40103828 80.2077%
BRANCH_DIRECT_JUMP: 497927 0.995854%
BRANCH_INDIRECT: 130586 0.261172%
BRANCH_CONDITIONAL: 7218977 14.438%
BRANCH_DIRECT_CALL: 625806 1.25161%
BRANCH_INDIRECT_CALL: 389785 0.77957%
BRANCH_RETURN: 1032743 2.06549%
BRANCH_OTHER: 0 0%

DRAM PAGES: 1048576
Allocated PAGES: 8067
