
*** ChampSim Multicore Out-of-Order Simulator ***

Warmup Instructions: 50000000
Simulation Instructions: 50000000
Number of CPUs: 1
LLC sets: 2048
LLC ways: 16
Off-chip DRAM Size: 4096 MB Channels: 1 Width: 64-bit Data Rate: 6400 MT/s
CPU 0 runs ../IPC-traces//server_031.champsimtrace.xz
.xz
NUM_OF_IPS_IN_CRITICAL_IP_TRAINING: 64
NUM_OF_CRITICAL_IP_TRAINING_TABLE_WAYS: 2
NUM_OF_CRITICAL_IP_TRAINING_TABLE_SETS: 32
WOBBLY_CRITICAL_IP_CACHE_SETS: 32
WOBBLY_CRITICAL_IP_CACHE_WAYS: 4
BTB has LRU replacement policy
ITLB has LRU replacement policy
DTLB has LRU replacement policy
STLB has LRU replacement policy
CPU 0 L1I next line prefetcher
L1I has LRU replacement policy
IP Table Entries: 64
L1D has LRU replacement policy
Initialize SRRIP state for L2C
Initialize DRRIP state for LLC
Heartbeat CPU 0 instructions: 10000000 cycles: 2883701 heartbeat IPC: 3.46777 cumulative IPC: 3.46777 (Simulation time: 0 hr 2 min 9 sec) 
Heartbeat CPU 0 instructions: 20000000 cycles: 5763420 heartbeat IPC: 3.47256 cumulative IPC: 3.47016 (Simulation time: 0 hr 4 min 20 sec) 
Heartbeat CPU 0 instructions: 30000002 cycles: 8641392 heartbeat IPC: 3.47467 cumulative IPC: 3.47166 (Simulation time: 0 hr 6 min 27 sec) 
Heartbeat CPU 0 instructions: 40000003 cycles: 11519225 heartbeat IPC: 3.47484 cumulative IPC: 3.47246 (Simulation time: 0 hr 8 min 34 sec) 
Heartbeat CPU 0 instructions: 50000001 cycles: 14399584 heartbeat IPC: 3.47179 cumulative IPC: 3.47232 (Simulation time: 0 hr 10 min 30 sec) 

Warmup complete CPU 0 instructions: 50000001 cycles: 14399584 (Simulation time: 0 hr 10 min 30 sec) 

% increase in all ip prefetch 419.011
% increase in all ip prefetch -2.51531
Heartbeat CPU 0 instructions: 60000002 cycles: 30768567 heartbeat IPC: 0.610912 cumulative IPC: 0.610912 (Simulation time: 0 hr 12 min 56 sec) 
Heartbeat CPU 0 instructions: 70000001 cycles: 47181946 heartbeat IPC: 0.609259 cumulative IPC: 0.610084 (Simulation time: 0 hr 15 min 21 sec) 
*** Reached end of trace for Core: 0 Repeating trace: ../IPC-traces//server_031.champsimtrace.xz
Heartbeat CPU 0 instructions: 80000000 cycles: 63446567 heartbeat IPC: 0.614831 cumulative IPC: 0.611658 (Simulation time: 0 hr 17 min 47 sec) 
Heartbeat CPU 0 instructions: 90000000 cycles: 79701135 heartbeat IPC: 0.615212 cumulative IPC: 0.612543 (Simulation time: 0 hr 20 min 11 sec) 
Heartbeat CPU 0 instructions: 100000000 cycles: 95873469 heartbeat IPC: 0.61834 cumulative IPC: 0.613694 (Simulation time: 0 hr 24 min 20 sec) 
Finished CPU 0 instructions: 50000000 cycles: 81473891 cumulative IPC: 0.613694 (Simulation time: 0 hr 24 min 20 sec) 

ChampSim completed all CPUs

Region of Interest Statistics

CPU 0 cumulative IPC: 0.613694 instructions: 50000000 cycles: 81473891

CPU 0 Average Load ROB stall cycles: 1.95873e+07
CPU 0 Fraction of times ROB stalled by Loads: 35.4382
CPU 0 Percentage of Load stall cycles in Total stall cycles: 2.71728e+08
Issued all: 27883724
Issued LT all: 22025994
rob_not_full_when_issued_lt_all: 21899937
Issued LT one: 17098884
rob_not_full_when_issued_lt_one: 16989862
 Total stall cycles: 69032083
 Total load stall cycles: 187579263639613
Unique Load IPs: 12877
CPU 0 NUM of IPS identified critical: 5
CPU 0 Num of Load IPs stalling ROB: 10829
Threshold modification factor: -1
Max PIST entries: 64
Min PIST entries: 0
Avg PIST entries: 32
Trouble in retire width: 0.894134
MaC = Marked as critical.
lt_50_percent_before_Mac: 5
gt_90_percent_before_Mac: 0
gt_75_percent_before_Mac: 0
gt_50_percent_before_Mac: 0
stall_proportion_bin_same_before_after: 0
stall_proportion_bin_lower_before_after: 0
stall_proportion_bin_upper_before_after: 0
average_stall_proportion_before: 0.111111
average_stall_proportion_after: 0.112048
Critical IP stalls, total frequency: 100381
Non-critical IP stalls, total frequency: 3293381
Total Freq all stalling IPs: 3393762
Critical_IP_Detector_Accuracy_70: 0.8
Critical_IP_Detector_Accuracy_80: 0.8
Critical_IP_Detector_Accuracy_90: 0.8
Critical_IP_Detector_Coverage_70: 0.00305344
Critical_IP_Detector_Coverage_80: 0.00229226
Critical_IP_Detector_Coverage_90: 0.00178891
stat_90_percent_critical_ip_stalls_freq: 3054742
stat_90_percent_non_critical_ip_stalls_freq: 339020
AVERAGE_ROB_Occupancy_90_Percent_Critical_IP_Stalls: 47.5035
AVERAGE_ROB_Occupancy_90_Percent_Non_Critical_IP_Stalls: 35.0203
Critical_IP_ROB_Stalls_Bucket_0: 6845
Non-critical_IP_ROB_Stalls_Bucket_0: 2325103
Critical_IP_ROB_Stalls_Bucket_1: 22447
Non-critical_IP_ROB_Stalls_Bucket_1: 692178
Critical_IP_ROB_Stalls_Bucket_2: 41390
Non-critical_IP_ROB_Stalls_Bucket_2: 199382
Critical_IP_ROB_Stalls_Bucket_3: 14821
Non-critical_IP_ROB_Stalls_Bucket_3: 52533
Critical_IP_ROB_Stalls_Bucket_4: 6132
Non-critical_IP_ROB_Stalls_Bucket_4: 17518
Critical_IP_ROB_Stalls_Bucket_5: 3029
Non-critical_IP_ROB_Stalls_Bucket_5: 4921
Critical_IP_ROB_Stalls_Bucket_6: 5717
Non-critical_IP_ROB_Stalls_Bucket_6: 1746
0 => IPs accounting for >50 percent of stalls, 1 => 55, 2 => 60, 3 => 65 and so on till 90.
percent50: 50.0064 num IPs:  480
percent55: 55.0064 num IPs: 678
percent60: 60.0059 num IPs: 883
percent65: 65.0086 num IPs: 1094
percent70: 70.0192 num IPs: 1310
percent75: 75.0206 num IPs: 1526
percent80: 80.0084 num IPs: 1745
percent85: 85.0105 num IPs: 1974
percent90: 90.0115 num IPs: 2236
Critical_ROB_Stalls_Percent_0_Bucket_0: 971273
Non-critical_ROB_Stalls_Percent_0_Bucket_0: 1360675
Critical_ROB_Stalls_Percent_0_Bucket_1: 444492
Non-critical_ROB_Stalls_Percent_0_Bucket_1: 270133
Critical_ROB_Stalls_Percent_0_Bucket_2: 185736
Non-critical_ROB_Stalls_Percent_0_Bucket_2: 55036
Critical_ROB_Stalls_Percent_0_Bucket_3: 60780
Non-critical_ROB_Stalls_Percent_0_Bucket_3: 6574
Critical_ROB_Stalls_Percent_0_Bucket_4: 20857
Non-critical_ROB_Stalls_Percent_0_Bucket_4: 2793
Critical_ROB_Stalls_Percent_0_Bucket_5: 7015
Non-critical_ROB_Stalls_Percent_0_Bucket_5: 935
Critical_ROB_Stalls_Percent_0_Bucket_6: 6943
Non-critical_ROB_Stalls_Percent_0_Bucket_6: 520
Critical_ROB_Stalls_Percent_1_Bucket_0: 1102465
Non-critical_ROB_Stalls_Percent_1_Bucket_0: 1229483
Critical_ROB_Stalls_Percent_1_Bucket_1: 474714
Non-critical_ROB_Stalls_Percent_1_Bucket_1: 239911
Critical_ROB_Stalls_Percent_1_Bucket_2: 192740
Non-critical_ROB_Stalls_Percent_1_Bucket_2: 48032
Critical_ROB_Stalls_Percent_1_Bucket_3: 61262
Non-critical_ROB_Stalls_Percent_1_Bucket_3: 6092
Critical_ROB_Stalls_Percent_1_Bucket_4: 21639
Non-critical_ROB_Stalls_Percent_1_Bucket_4: 2011
Critical_ROB_Stalls_Percent_1_Bucket_5: 7021
Non-critical_ROB_Stalls_Percent_1_Bucket_5: 929
Critical_ROB_Stalls_Percent_1_Bucket_6: 6945
Non-critical_ROB_Stalls_Percent_1_Bucket_6: 518
Critical_ROB_Stalls_Percent_2_Bucket_0: 1208624
Non-critical_ROB_Stalls_Percent_2_Bucket_0: 1123324
Critical_ROB_Stalls_Percent_2_Bucket_1: 527009
Non-critical_ROB_Stalls_Percent_2_Bucket_1: 187616
Critical_ROB_Stalls_Percent_2_Bucket_2: 203202
Non-critical_ROB_Stalls_Percent_2_Bucket_2: 37570
Critical_ROB_Stalls_Percent_2_Bucket_3: 61920
Non-critical_ROB_Stalls_Percent_2_Bucket_3: 5434
Critical_ROB_Stalls_Percent_2_Bucket_4: 21732
Non-critical_ROB_Stalls_Percent_2_Bucket_4: 1918
Critical_ROB_Stalls_Percent_2_Bucket_5: 7025
Non-critical_ROB_Stalls_Percent_2_Bucket_5: 925
Critical_ROB_Stalls_Percent_2_Bucket_6: 6946
Non-critical_ROB_Stalls_Percent_2_Bucket_6: 517
Critical_ROB_Stalls_Percent_3_Bucket_0: 1334454
Non-critical_ROB_Stalls_Percent_3_Bucket_0: 997494
Critical_ROB_Stalls_Percent_3_Bucket_1: 563902
Non-critical_ROB_Stalls_Percent_3_Bucket_1: 150723
Critical_ROB_Stalls_Percent_3_Bucket_2: 210129
Non-critical_ROB_Stalls_Percent_3_Bucket_2: 30643
Critical_ROB_Stalls_Percent_3_Bucket_3: 62031
Non-critical_ROB_Stalls_Percent_3_Bucket_3: 5323
Critical_ROB_Stalls_Percent_3_Bucket_4: 21752
Non-critical_ROB_Stalls_Percent_3_Bucket_4: 1898
Critical_ROB_Stalls_Percent_3_Bucket_5: 7025
Non-critical_ROB_Stalls_Percent_3_Bucket_5: 925
Critical_ROB_Stalls_Percent_3_Bucket_6: 6949
Non-critical_ROB_Stalls_Percent_3_Bucket_6: 514
Critical_ROB_Stalls_Percent_4_Bucket_0: 1479206
Non-critical_ROB_Stalls_Percent_4_Bucket_0: 852742
Critical_ROB_Stalls_Percent_4_Bucket_1: 584186
Non-critical_ROB_Stalls_Percent_4_Bucket_1: 130439
Critical_ROB_Stalls_Percent_4_Bucket_2: 215064
Non-critical_ROB_Stalls_Percent_4_Bucket_2: 25708
Critical_ROB_Stalls_Percent_4_Bucket_3: 62086
Non-critical_ROB_Stalls_Percent_4_Bucket_3: 5268
Critical_ROB_Stalls_Percent_4_Bucket_4: 21752
Non-critical_ROB_Stalls_Percent_4_Bucket_4: 1898
Critical_ROB_Stalls_Percent_4_Bucket_5: 7025
Non-critical_ROB_Stalls_Percent_4_Bucket_5: 925
Critical_ROB_Stalls_Percent_4_Bucket_6: 6949
Non-critical_ROB_Stalls_Percent_4_Bucket_6: 514
Critical_ROB_Stalls_Percent_5_Bucket_0: 1616069
Non-critical_ROB_Stalls_Percent_5_Bucket_0: 715879
Critical_ROB_Stalls_Percent_5_Bucket_1: 611447
Non-critical_ROB_Stalls_Percent_5_Bucket_1: 103178
Critical_ROB_Stalls_Percent_5_Bucket_2: 220029
Non-critical_ROB_Stalls_Percent_5_Bucket_2: 20743
Critical_ROB_Stalls_Percent_5_Bucket_3: 62671
Non-critical_ROB_Stalls_Percent_5_Bucket_3: 4683
Critical_ROB_Stalls_Percent_5_Bucket_4: 21784
Non-critical_ROB_Stalls_Percent_5_Bucket_4: 1866
Critical_ROB_Stalls_Percent_5_Bucket_5: 7033
Non-critical_ROB_Stalls_Percent_5_Bucket_5: 917
Critical_ROB_Stalls_Percent_5_Bucket_6: 6953
Non-critical_ROB_Stalls_Percent_5_Bucket_6: 510
Critical_ROB_Stalls_Percent_6_Bucket_0: 1764622
Non-critical_ROB_Stalls_Percent_6_Bucket_0: 567326
Critical_ROB_Stalls_Percent_6_Bucket_1: 627738
Non-critical_ROB_Stalls_Percent_6_Bucket_1: 86887
Critical_ROB_Stalls_Percent_6_Bucket_2: 224401
Non-critical_ROB_Stalls_Percent_6_Bucket_2: 16371
Critical_ROB_Stalls_Percent_6_Bucket_3: 62718
Non-critical_ROB_Stalls_Percent_6_Bucket_3: 4636
Critical_ROB_Stalls_Percent_6_Bucket_4: 21788
Non-critical_ROB_Stalls_Percent_6_Bucket_4: 1862
Critical_ROB_Stalls_Percent_6_Bucket_5: 7034
Non-critical_ROB_Stalls_Percent_6_Bucket_5: 916
Critical_ROB_Stalls_Percent_6_Bucket_6: 6962
Non-critical_ROB_Stalls_Percent_6_Bucket_6: 501
Critical_ROB_Stalls_Percent_7_Bucket_0: 1915416
Non-critical_ROB_Stalls_Percent_7_Bucket_0: 416532
Critical_ROB_Stalls_Percent_7_Bucket_1: 644869
Non-critical_ROB_Stalls_Percent_7_Bucket_1: 69756
Critical_ROB_Stalls_Percent_7_Bucket_2: 226099
Non-critical_ROB_Stalls_Percent_7_Bucket_2: 14673
Critical_ROB_Stalls_Percent_7_Bucket_3: 62803
Non-critical_ROB_Stalls_Percent_7_Bucket_3: 4551
Critical_ROB_Stalls_Percent_7_Bucket_4: 21825
Non-critical_ROB_Stalls_Percent_7_Bucket_4: 1825
Critical_ROB_Stalls_Percent_7_Bucket_5: 7037
Non-critical_ROB_Stalls_Percent_7_Bucket_5: 913
Critical_ROB_Stalls_Percent_7_Bucket_6: 6971
Non-critical_ROB_Stalls_Percent_7_Bucket_6: 492
Critical_ROB_Stalls_Percent_8_Bucket_0: 2064202
Non-critical_ROB_Stalls_Percent_8_Bucket_0: 267746
Critical_ROB_Stalls_Percent_8_Bucket_1: 660428
Non-critical_ROB_Stalls_Percent_8_Bucket_1: 54197
Critical_ROB_Stalls_Percent_8_Bucket_2: 228955
Non-critical_ROB_Stalls_Percent_8_Bucket_2: 11817
Critical_ROB_Stalls_Percent_8_Bucket_3: 63996
Non-critical_ROB_Stalls_Percent_8_Bucket_3: 3358
Critical_ROB_Stalls_Percent_8_Bucket_4: 22428
Non-critical_ROB_Stalls_Percent_8_Bucket_4: 1222
Critical_ROB_Stalls_Percent_8_Bucket_5: 7654
Non-critical_ROB_Stalls_Percent_8_Bucket_5: 296
Critical_ROB_Stalls_Percent_8_Bucket_6: 7079
Non-critical_ROB_Stalls_Percent_8_Bucket_6: 384
Average ROB occupancy Load Stall Begin: 37.7097
Average ROB occupancy Load Stall End: 46.2565
Min ROB occupancy Load Stall Begin: 1
Max ROB occupancy Load Stall Begin: 352
Min ROB occupancy Load Stall End: 1
Max ROB occupancy Load Stall End: 352
Average ROB occupancy Critical Load Stall Begin: 134.225
Average ROB occupancy Critical Load Stall End: 139.708
Min ROB occupancy Critical Load Stall Begin: 3
Max ROB occupancy Critical Load Stall Begin: 352
Min ROB occupancy Critical Load Stall End: 3
Max ROB occupancy Critical Load Stall End: 352
 ROB Load Stall Begin Bucket Count 0: 2600223
 ROB Load Stall End Bucket Count 0: 2331948
 ROB Critical Load Stall Begin Bucket Count 0: 6507
 ROB Critical Load Stall End Bucket Count 0: 5637
 ROB Load Stall Begin Bucket Count 1: 523063
 ROB Load Stall End Bucket Count 1: 714625
 ROB Critical Load Stall Begin Bucket Count 1: 21678
 ROB Critical Load Stall End Bucket Count 1: 19568
 ROB Load Stall Begin Bucket Count 2: 186719
 ROB Load Stall End Bucket Count 2: 240772
 ROB Critical Load Stall Begin Bucket Count 2: 34208
 ROB Critical Load Stall End Bucket Count 2: 34748
 ROB Load Stall Begin Bucket Count 3: 52572
 ROB Load Stall End Bucket Count 3: 67354
 ROB Critical Load Stall Begin Bucket Count 3: 10445
 ROB Critical Load Stall End Bucket Count 3: 12352
 ROB Load Stall Begin Bucket Count 4: 18259
 ROB Load Stall End Bucket Count 4: 23650
 ROB Critical Load Stall Begin Bucket Count 4: 4880
 ROB Critical Load Stall End Bucket Count 4: 5161
 ROB Load Stall Begin Bucket Count 5: 6297
 ROB Load Stall End Bucket Count 5: 7950
 ROB Critical Load Stall Begin Bucket Count 5: 2695
 ROB Critical Load Stall End Bucket Count 5: 2713
 ROB Load Stall Begin Bucket Count 6: 6629
 ROB Load Stall End Bucket Count 6: 7463
 ROB Critical Load Stall Begin Bucket Count 6: 5001
 ROB Critical Load Stall End Bucket Count 6: 5235
PIST Tag Read Accesses: 2485924
PIST Read Accesses: 1242962
PIST Tag Write Accesses: 2485924
PIST Write Accesses: 1242962
Criticality detector called times: 3308348
Max global_stall_cycles_count: 2244026
Threshold Modified: 1 times, factor: -1
Sturdy critical IP cache stats: 
 Unused entries: 0
CIC Tag Read Accesses: 0
CIC Read Accesses: 0
CIC Tag Write Accesses: 0
CIC Write Accesses: 0
Wobbly critical IP cache stats: 
 Unused entries: 123
CIC Tag Read Accesses: 84227616
CIC Read Accesses: 0
CIC Tag Write Accesses: 5
CIC Write Accesses: 0
ITLB TOTAL     ACCESS:   10407529  HIT:    9640550  MISS:     766979  HIT %:    92.6305  MISS %:    7.36946   MPKI: 15.3396
ITLB LOAD TRANSLATION ACCESS:    8205897  HIT:    8160039  MISS:      45858  HIT %:    99.4412  MISS %:   0.558842   MPKI: 0.91716
ITLB TRANSLATION FROM L1D PREFETCHER ACCESS:    2201632  HIT:    1480511  MISS:     721121  HIT %:    67.2461  MISS %:    32.7539   MPKI: 14.4224
ITLB PREFETCH  REQUESTED:          0  ISSUED:          0  USEFUL:     578705  USELESS:     142423
ITLB USEFUL LOAD PREFETCHES:     578705 PREFETCH ISSUED TO LOWER LEVEL:          0  ACCURACY: inf
ITLB TIMELY PREFETCHES:     578705 LATE PREFETCHES: 93 DROPPED PREFETCHES: 5541
ITLB PREFETCHES SAME FILL-ORIGIN LEVEL: 0 DIFFERENT FILL-ORIGIN LEVEL: 0
ITLB AVERAGE MISS LATENCY: 4736.28 cycles
ITLB RQ	ACCESS:   15954806	FORWARD:          0	MERGED:    5501889	TO_CACHE:   10452917

DTLB TOTAL     ACCESS:   11395294  HIT:   10837344  MISS:     557950  HIT %:    95.1037  MISS %:    4.89632   MPKI: 11.159
DTLB LOAD TRANSLATION ACCESS:   11395294  HIT:   10837344  MISS:     557950  HIT %:    95.1037  MISS %:    4.89632   MPKI: 11.159
DTLB PREFETCH  REQUESTED:          0  ISSUED:          0  USEFUL:          0  USELESS:          0
DTLB USEFUL LOAD PREFETCHES:          0 PREFETCH ISSUED TO LOWER LEVEL:          0  ACCURACY: -nan
DTLB TIMELY PREFETCHES:          0 LATE PREFETCHES: 0 DROPPED PREFETCHES: 0
DTLB PREFETCHES SAME FILL-ORIGIN LEVEL: 0 DIFFERENT FILL-ORIGIN LEVEL: 0
DTLB AVERAGE MISS LATENCY: 10.8458 cycles
DTLB RQ	ACCESS:   14919770	FORWARD:          0	MERGED:    3496952	TO_CACHE:   11422818

STLB TOTAL     ACCESS:    1345776  HIT:    1329878  MISS:      15898  HIT %:    98.8187  MISS %:    1.18133   MPKI: 0.31796
STLB LOAD TRANSLATION ACCESS:     603715  HIT:     589635  MISS:      14080  HIT %:    97.6678  MISS %:    2.33223   MPKI: 0.2816
STLB TRANSLATION FROM L1D PREFETCHER ACCESS:     742061  HIT:     740243  MISS:       1818  HIT %:     99.755  MISS %:   0.244993   MPKI: 0.03636
STLB PREFETCH  REQUESTED:          0  ISSUED:          0  USEFUL:       1558  USELESS:        251
STLB USEFUL LOAD PREFETCHES:       1558 PREFETCH ISSUED TO LOWER LEVEL:          0  ACCURACY: inf
STLB TIMELY PREFETCHES:       1558 LATE PREFETCHES: 0 DROPPED PREFETCHES: 5541
STLB PREFETCHES SAME FILL-ORIGIN LEVEL: 0 DIFFERENT FILL-ORIGIN LEVEL: 0
STLB AVERAGE MISS LATENCY: 70.2027 cycles
STLB RQ	ACCESS:    1356680	FORWARD:          0	MERGED:       5363	TO_CACHE:    1351317

STLB Hit, L1D data hit: 0
STLB Hit, L2C data hit: 0
STLB Hit, LLC data hit: 0
STLB Hit, LLC data miss: 0
STLB STLB hints to L2: 0
L1D TOTAL     ACCESS:   14410785  HIT:   13154457  MISS:    1256328  HIT %:     91.282  MISS %:    8.71797   MPKI: 25.1266
L1D LOAD      ACCESS:    7964089  HIT:    7027754  MISS:     936335  HIT %:     88.243  MISS %:     11.757   MPKI: 18.7267
L1D RFO       ACCESS:    6423677  HIT:    6119447  MISS:     304230  HIT %:    95.2639  MISS %:    4.73607   MPKI: 6.0846
L1D PREFETCH  ACCESS:      23019  HIT:       7256  MISS:      15763  HIT %:    31.5218  MISS %:    68.4782   MPKI: 0.31526
L1D PREFETCH  REQUESTED:      52427  ISSUED:      52427  USEFUL:       2987  USELESS:      12766
L1D USEFUL LOAD PREFETCHES:       2987 PREFETCH ISSUED TO LOWER LEVEL:      17926  ACCURACY: 16.6629
L1D TIMELY PREFETCHES:       2987 LATE PREFETCHES: 2160 DROPPED PREFETCHES: 0
L1D PREFETCHES SAME FILL-ORIGIN LEVEL: 17926 DIFFERENT FILL-ORIGIN LEVEL: 0
L1D AVERAGE MISS LATENCY: 40875.8 cycles
L1D RQ	ACCESS:   11355558	FORWARD:          0	MERGED:    3198553	TO_CACHE:    8005284
L1D WQ	ACCESS:    6987103	FORWARD:     151728	MERGED:      72617	TO_CACHE:    6914486
L1D PQ	ACCESS:      26217	FORWARD:          0	MERGED:          0	TO_CACHE:      26210

L1D UNIQUE REGIONS ACCESSED: 0
L1D REGIONS CONFLICTS: 0
L1D Cross Page Prefetch Requests: 0
L1D Same Page Prefetch Requests: 26755
L1D ROI Sum of L1D PQ occupancy: 342860
L1D PREFETCHES PUSHED FROM L2C: 0
L1I TOTAL     ACCESS:   15870743  HIT:   11486425  MISS:    4384318  HIT %:    72.3748  MISS %:    27.6252   MPKI: 87.6864
L1I LOAD      ACCESS:    9698916  HIT:    9623367  MISS:      75549  HIT %:    99.2211  MISS %:   0.778943   MPKI: 1.51098
L1I PREFETCH  ACCESS:    6171827  HIT:    1863058  MISS:    4308769  HIT %:    30.1865  MISS %:    69.8135   MPKI: 86.1754
L1I PREFETCH  REQUESTED:    6385480  ISSUED:    6368820  USEFUL:    3057740  USELESS:    1251066
L1I USEFUL LOAD PREFETCHES:    3057740 PREFETCH ISSUED TO LOWER LEVEL:    4323612  ACCURACY: 70.7219
L1I TIMELY PREFETCHES:    3057740 LATE PREFETCHES: 14851 DROPPED PREFETCHES: 12062
L1I PREFETCHES SAME FILL-ORIGIN LEVEL: 4323612 DIFFERENT FILL-ORIGIN LEVEL: 0
L1I AVERAGE MISS LATENCY: 174585 cycles
L1I RQ	ACCESS:   13646382	FORWARD:          0	MERGED:    3937635	TO_CACHE:    9708747
L1I PQ	ACCESS:    6368820	FORWARD:          0	MERGED:     122761	TO_CACHE:    6246059

BTB TOTAL     ACCESS:    6108832  HIT:    4217936  MISS:    1890896  HIT %:    69.0465  MISS %:    30.9535   MPKI: 37.8179
BTB BRANCH_DIRECT_JUMP	ACCESS:     546483  HIT:     394596  MISS:     151887
BTB BRANCH_INDIRECT	ACCESS:     172433  HIT:     135681  MISS:      36752
BTB BRANCH_CONDITIONAL	ACCESS:    2972190  HIT:    2453638  MISS:     518552
BTB BRANCH_DIRECT_CALL	ACCESS:    1018497  HIT:     648526  MISS:     369971
BTB BRANCH_INDIRECT_CALL	ACCESS:     190373  HIT:     119425  MISS:      70948
BTB BRANCH_RETURN	ACCESS:    1208856  HIT:     466070  MISS:     742786
BTB BRANCH_OTHER ACCESS:          0  HIT:          0  MISS:          0

L2C TOTAL     ACCESS:    6251840  HIT:    5859869  MISS:     391971  HIT %:    93.7303  MISS %:    6.26969   MPKI: 7.83942
L2C LOAD      ACCESS:     994864  HIT:     864466  MISS:     130398  HIT %:    86.8929  MISS %:    13.1071   MPKI: 2.60796
L2C DATA LOAD MPKI: 2.44744
L2C INSTRUCTION LOAD MPKI: 0.16052
L2C RFO       ACCESS:     304227  HIT:     275235  MISS:      28992  HIT %:    90.4703  MISS %:    9.52973   MPKI: 0.57984
L2C PREFETCH  ACCESS:    4341546  HIT:    4134023  MISS:     207523  HIT %:    95.2201  MISS %:    4.77993   MPKI: 4.15046
L2C DATA PREFETCH MPKI: 0.18906
L2C INSTRUCTION PREFETCH MPKI: 3.9614
L2C WRITEBACK ACCESS:     577940  HIT:     565066  MISS:      12874  HIT %:    97.7724  MISS %:    2.22757   MPKI: 0.25748
L2C LOAD TRANSLATION ACCESS:      21455  HIT:      10237  MISS:      11218  HIT %:    47.7138  MISS %:    52.2862   MPKI: 0.22436
L2C TRANSLATION FROM L1D PREFETCHER ACCESS:      11808  HIT:      10842  MISS:        966  HIT %:    91.8191  MISS %:    8.18089   MPKI: 0.01932
L2C PREFETCH  REQUESTED:          0  ISSUED:          0  USEFUL:       2715  USELESS:     205586
L2C USEFUL LOAD PREFETCHES:       2715 PREFETCH ISSUED TO LOWER LEVEL:     207523  ACCURACY: 1.30829
L2C TIMELY PREFETCHES:       2715 LATE PREFETCHES: 0 DROPPED PREFETCHES: 0
L2C PREFETCHES SAME FILL-ORIGIN LEVEL: 0 DIFFERENT FILL-ORIGIN LEVEL: 0
L2C AVERAGE MISS LATENCY: 44.2318 cycles
L2C RQ	ACCESS:    1332363	FORWARD:          0	MERGED:          0	TO_CACHE:    1332354
L2C WQ	ACCESS:     577940	FORWARD:          9	MERGED:          0	TO_CACHE:     577940
L2C PQ	ACCESS:    4341538	FORWARD:          0	MERGED:          0	TO_CACHE:    4341538

L2C Instructions Evicting Data 77608
L2C Translations Evicting Data 7348
L2C Data Evicting Data 84131
L2C Instructions Evicting Instructions 124609
L2C Translations Evicting Instructions 3937
L2C Data Evicting Instructions 69465
L2C Instructions Evicting Translations 3879
L2C Translations Evicting Translations 899
L2C Data Evicting Translations 7221
L2C Dense regions hint from L2: 0
PSCL5 TOTAL     ACCESS:      21439  HIT:      21439  MISS:          0  HIT %:        100  MISS %:          0   MPKI: 0
PSCL5 LOAD TRANSLATION ACCESS:      14080  HIT:      14080  MISS:          0  HIT %:        100  MISS %:          0   MPKI: 0
PSCL5 TRANSLATION FROM L1D PREFETCHER ACCESS:       7359  HIT:       7359  MISS:          0  HIT %:        100  MISS %:          0   MPKI: 0
PSCL5 PREFETCH  REQUESTED:          0  ISSUED:          0  USEFUL:          0  USELESS:          0
PSCL5 USEFUL LOAD PREFETCHES:          0 PREFETCH ISSUED TO LOWER LEVEL:          0  ACCURACY: -nan
PSCL5 TIMELY PREFETCHES:          0 LATE PREFETCHES: 0 DROPPED PREFETCHES: 0
PSCL5 PREFETCHES SAME FILL-ORIGIN LEVEL: 0 DIFFERENT FILL-ORIGIN LEVEL: 0

PSCL4 TOTAL     ACCESS:      20063  HIT:      19862  MISS:        201  HIT %:    98.9982  MISS %:    1.00184   MPKI: 0.00402
PSCL4 LOAD TRANSLATION ACCESS:      13110  HIT:      12909  MISS:        201  HIT %:    98.4668  MISS %:    1.53318   MPKI: 0.00402
PSCL4 TRANSLATION FROM L1D PREFETCHER ACCESS:       6953  HIT:       6953  MISS:          0  HIT %:        100  MISS %:          0   MPKI: 0
PSCL4 PREFETCH  REQUESTED:          0  ISSUED:          0  USEFUL:          0  USELESS:          0
PSCL4 USEFUL LOAD PREFETCHES:          0 PREFETCH ISSUED TO LOWER LEVEL:          0  ACCURACY: -nan
PSCL4 TIMELY PREFETCHES:          0 LATE PREFETCHES: 0 DROPPED PREFETCHES: 0
PSCL4 PREFETCHES SAME FILL-ORIGIN LEVEL: 0 DIFFERENT FILL-ORIGIN LEVEL: 0

PSCL3 TOTAL     ACCESS:      21311  HIT:      21107  MISS:        204  HIT %:    99.0427  MISS %:   0.957252   MPKI: 0.00408
PSCL3 LOAD TRANSLATION ACCESS:      14093  HIT:      13889  MISS:        204  HIT %:    98.5525  MISS %:    1.44753   MPKI: 0.00408
PSCL3 TRANSLATION FROM L1D PREFETCHER ACCESS:       7218  HIT:       7218  MISS:          0  HIT %:        100  MISS %:          0   MPKI: 0
PSCL3 PREFETCH  REQUESTED:          0  ISSUED:          0  USEFUL:          0  USELESS:          0
PSCL3 USEFUL LOAD PREFETCHES:          0 PREFETCH ISSUED TO LOWER LEVEL:          0  ACCURACY: -nan
PSCL3 TIMELY PREFETCHES:          0 LATE PREFETCHES: 0 DROPPED PREFETCHES: 0
PSCL3 PREFETCHES SAME FILL-ORIGIN LEVEL: 0 DIFFERENT FILL-ORIGIN LEVEL: 0

PSCL2 TOTAL     ACCESS:      17999  HIT:      10151  MISS:       7848  HIT %:    56.3976  MISS %:    43.6024   MPKI: 0.15696
PSCL2 LOAD TRANSLATION ACCESS:      14871  HIT:       7023  MISS:       7848  HIT %:    47.2261  MISS %:    52.7739   MPKI: 0.15696
PSCL2 TRANSLATION FROM L1D PREFETCHER ACCESS:       3128  HIT:       3128  MISS:          0  HIT %:        100  MISS %:          0   MPKI: 0
PSCL2 PREFETCH  REQUESTED:          0  ISSUED:          0  USEFUL:          0  USELESS:          0
PSCL2 USEFUL LOAD PREFETCHES:          0 PREFETCH ISSUED TO LOWER LEVEL:          0  ACCURACY: -nan
PSCL2 TIMELY PREFETCHES:          0 LATE PREFETCHES: 0 DROPPED PREFETCHES: 0
PSCL2 PREFETCHES SAME FILL-ORIGIN LEVEL: 0 DIFFERENT FILL-ORIGIN LEVEL: 0

LLC TOTAL     ACCESS:     419118  HIT:     377584  MISS:      41534  HIT %:    90.0901  MISS %:    9.90986   MPKI: 0.83068
LLC LOAD      ACCESS:     130398  HIT:     101204  MISS:      29194  HIT %:    77.6116  MISS %:    22.3884   MPKI: 0.58388
LLC RFO       ACCESS:      28992  HIT:      24798  MISS:       4194  HIT %:    85.5339  MISS %:    14.4661   MPKI: 0.08388
LLC PREFETCH  ACCESS:     207523  HIT:     200822  MISS:       6701  HIT %:     96.771  MISS %:    3.22904   MPKI: 0.13402
LLC WRITEBACK ACCESS:      40021  HIT:      39719  MISS:        302  HIT %:    99.2454  MISS %:   0.754604   MPKI: 0.00604
LLC LOAD TRANSLATION ACCESS:      11218  HIT:      10094  MISS:       1124  HIT %:    89.9804  MISS %:    10.0196   MPKI: 0.02248
LLC TRANSLATION FROM L1D PREFETCHER ACCESS:        966  HIT:        947  MISS:         19  HIT %:    98.0331  MISS %:    1.96687   MPKI: 0.00038
LLC PREFETCH  REQUESTED:          0  ISSUED:          0  USEFUL:        262  USELESS:       3873
LLC USEFUL LOAD PREFETCHES:        262 PREFETCH ISSUED TO LOWER LEVEL:       6701  ACCURACY: 3.90986
LLC TIMELY PREFETCHES:        262 LATE PREFETCHES: 0 DROPPED PREFETCHES: 0
LLC PREFETCHES SAME FILL-ORIGIN LEVEL: 0 DIFFERENT FILL-ORIGIN LEVEL: 0
LLC AVERAGE MISS LATENCY: 142.961 cycles
LLC RQ	ACCESS:     171574	FORWARD:          0	MERGED:          0	TO_CACHE:     171574
LLC WQ	ACCESS:      40021	FORWARD:          0	MERGED:          0	TO_CACHE:      40021
LLC PQ	ACCESS:     207523	FORWARD:          0	MERGED:          0	TO_CACHE:     207523

LLC Dense regions hint to LLC: 0

RAW hits: 1101849
Loads Generated: 12457407
Loads sent to L1D: 11355558
Stores Generated: 6987099
Stores sent to L1D: 6987103
Major fault: 0 Minor fault: 6261
Allocated PAGES: 6261
I-Shadow cache 408 bytes
Touched + WorthPF tables 6144 bytes 
MMA filter 174 bytes 
FNL filter 272 bytes 
TOTAL PREFETCHER STORAGE SIZE: 25174 bytes
CPU 0 L1I next line prefetcher final stats

stream: 
stream:times selected: 39214
stream:pref_filled: 10365
stream:pref_useful: 783
stream:pref_late: 1404
stream:misses: 515
stream:misses_by_poll: 0

CS: 
CS:times selected: 5327
CS:pref_filled: 2434
CS:pref_useful: 1744
CS:pref_late: 590
CS:misses: 904
CS:misses_by_poll: 0

CPLX: 
CPLX:times selected: 33428
CPLX:pref_filled: 3235
CPLX:pref_useful: 517
CPLX:pref_late: 67
CPLX:misses: 3916
CPLX:misses_by_poll: 0

NL_L1: 
NL:times selected: 1115
NL:pref_filled: 68
NL:pref_useful: 2
NL:pref_late: 1
NL:misses: 13
NL:misses_by_poll: 0

total selections: 79084
total_filled: 15763
total_useful: 2987
total_late: 2174
total_polluted: 0
total_misses_after_warmup: 39145
conflicts: 135423
Degree Incremented Times: 0
Degree Decremented Times: 4383

L1 IP Table Write Accesses: 274248
L1 IP Table Read Accesses: 138825
L1 RST Write Accesses: 38876
L1 RST Read Accesses: 77752
L1 CSPT Write Accesses: 38876
L1 CSPT Read Accesses: 76494
L1 RR Filter Tag Write Accesses: 26217
L1 RR Filter Tag Read Accesses: 1867478
L1 IP Table Tag Write Accesses: 417700
L1 IP Table Tag Read Accesses: 417700
L1 RST Tag Write Accesses: 0
L1 RST Tag Read Accesses: 319509
L1 RR Filter Write Accesses: 0
L1 RR Filter Read Accesses: 67660
test: 10595

DRAM Statistics
 CHANNEL 0
 RQ ROW_BUFFER_HIT:      13391  ROW_BUFFER_MISS:      27836
 DBUS_CONGESTED:         10
 WQ ROW_BUFFER_HIT:       1026  ROW_BUFFER_MISS:       3195  FULL:          0

 AVG_CONGESTED_CYCLE: 4
 All warmup complete: 2
Channel 0 Bank busy for read cycles: 0
Channel 0 Bank busy for write cycles: 0
Channel 0
Rank 0
0banks busy for read cycles: 77028975
0banks busy for write cycles: 2282
1banks busy for read cycles: 2694839
1banks busy for write cycles: 560090
2banks busy for read cycles: 578460
2banks busy for write cycles: 195396
3banks busy for read cycles: 159714
3banks busy for write cycles: 92166
4banks busy for read cycles: 36171
4banks busy for write cycles: 39130
5banks busy for read cycles: 16426
5banks busy for write cycles: 13911
6banks busy for read cycles: 12495
6banks busy for write cycles: 7109
7banks busy for read cycles: 11729
7banks busy for write cycles: 3027
8banks busy for read cycles: 16692
8banks busy for write cycles: 5280

CPU 0 Branch Prediction Accuracy: 99.6894% MPKI: 0.58048 Average ROB Occupancy at Mispredict: 90.104
Branch types
NOT_BRANCH: 40655532 81.3111%
BRANCH_DIRECT_JUMP: 546483 1.09297%
BRANCH_INDIRECT: 172433 0.344866%
BRANCH_CONDITIONAL: 6207555 12.4151%
BRANCH_DIRECT_CALL: 1018497 2.03699%
BRANCH_INDIRECT_CALL: 190373 0.380746%
BRANCH_RETURN: 1208856 2.41771%
BRANCH_OTHER: 0 0%

DRAM PAGES: 1048576
Allocated PAGES: 6261
