
*** ChampSim Multicore Out-of-Order Simulator ***

Warmup Instructions: 50000000
Simulation Instructions: 50000000
Number of CPUs: 1
LLC sets: 2048
LLC ways: 16
Off-chip DRAM Size: 4096 MB Channels: 1 Width: 64-bit Data Rate: 6400 MT/s
CPU 0 runs ../IPC-traces//server_025.champsimtrace.xz
.xz
BTB has LRU replacement policy
ITLB has LRU replacement policy
DTLB has LRU replacement policy
STLB has LRU replacement policy
CPU 0 L1I next line prefetcher
L1I has LRU replacement policy
IP Table Entries: 64
L1D has LRU replacement policy
Initialize SRRIP state for L2C
Initialize DRRIP state for LLC
Heartbeat CPU 0 instructions: 10000000 cycles: 2887289 heartbeat IPC: 3.46346 cumulative IPC: 3.46346 (Simulation time: 0 hr 3 min 21 sec) 
Heartbeat CPU 0 instructions: 20000003 cycles: 5772741 heartbeat IPC: 3.46566 cumulative IPC: 3.46456 (Simulation time: 0 hr 6 min 42 sec) 
Heartbeat CPU 0 instructions: 30000001 cycles: 8655020 heartbeat IPC: 3.46948 cumulative IPC: 3.4662 (Simulation time: 0 hr 10 min 3 sec) 
Heartbeat CPU 0 instructions: 40000001 cycles: 11540187 heartbeat IPC: 3.466 cumulative IPC: 3.46615 (Simulation time: 0 hr 13 min 27 sec) 
Heartbeat CPU 0 instructions: 50000001 cycles: 14424588 heartbeat IPC: 3.46692 cumulative IPC: 3.4663 (Simulation time: 0 hr 16 min 45 sec) 

Warmup complete CPU 0 instructions: 50000001 cycles: 14424588 (Simulation time: 0 hr 16 min 45 sec) 

Heartbeat CPU 0 instructions: 60000000 cycles: 30854996 heartbeat IPC: 0.608628 cumulative IPC: 0.608628 (Simulation time: 0 hr 20 min 3 sec) 
Heartbeat CPU 0 instructions: 70000000 cycles: 47355503 heartbeat IPC: 0.606042 cumulative IPC: 0.607332 (Simulation time: 0 hr 23 min 25 sec) 
Heartbeat CPU 0 instructions: 80000002 cycles: 63787417 heartbeat IPC: 0.608572 cumulative IPC: 0.607745 (Simulation time: 0 hr 26 min 42 sec) 
Heartbeat CPU 0 instructions: 90000002 cycles: 78834446 heartbeat IPC: 0.664583 cumulative IPC: 0.621023 (Simulation time: 0 hr 29 min 57 sec) 
Heartbeat CPU 0 instructions: 100000003 cycles: 92708039 heartbeat IPC: 0.720794 cumulative IPC: 0.638705 (Simulation time: 0 hr 33 min 7 sec) 
Finished CPU 0 instructions: 50000002 cycles: 78283451 cumulative IPC: 0.638705 (Simulation time: 0 hr 33 min 7 sec) 

ChampSim completed all CPUs

Region of Interest Statistics

CPU 0 cumulative IPC: 0.638705 instructions: 50000002 cycles: 78283451

CPU 0 Average Load ROB stall cycles: 1.9479e+07
CPU 0 Fraction of times ROB stalled by Loads: 36.2
CPU 0 Percentage of Load stall cycles in Total stall cycles: 2.814e+08
Issued all: 27656072
Issued LT all: 21887912
rob_not_full_when_issued_lt_all: 21624584
Issued LT one: 16833055
rob_not_full_when_issued_lt_one: 16604334
 Total stall cycles: 65124434
 Total load stall cycles: 183260043427681
Unique Load IPs: 13966
CPU 0 NUM of IPS identified critical: 50
CPU 0 Num of Load IPs stalling ROB: 0
Threshold modification factor: 0
Trouble in retire width: -nan
MaC = Marked as critical.
lt_50_percent_before_Mac: 9
gt_90_percent_before_Mac: 10
gt_75_percent_before_Mac: 9
gt_50_percent_before_Mac: 17
stall_proportion_bin_same_before_after: 0
stall_proportion_bin_lower_before_after: 0
stall_proportion_bin_upper_before_after: 0
average_stall_proportion_before: 0.0396373
average_stall_proportion_after: 0.0423461
Critical_IP_Detector_Accuracy_70: 0
Critical_IP_Detector_Accuracy_80: 0
Critical_IP_Detector_Accuracy_90: 0
Critical_IP_Detector_Coverage_70: 0
Critical_IP_Detector_Coverage_80: 0
Critical_IP_Detector_Coverage_90: 0
stat_90_percent_critical_ip_stalls_freq: 57830
stat_90_percent_non_critical_ip_stalls_freq: 18446744073709493786
AVERAGE_ROB_Occupancy_90_Percent_Critical_IP_Stalls: 99.8752
AVERAGE_ROB_Occupancy_90_Percent_Non_Critical_IP_Stalls: 8.56766e-12
Critical_IP_ROB_Stalls_Bucket_0: 9367
Non-critical_IP_ROB_Stalls_Bucket_0: 2270379
Critical_IP_ROB_Stalls_Bucket_1: 2483
Non-critical_IP_ROB_Stalls_Bucket_1: 723804
Critical_IP_ROB_Stalls_Bucket_2: 732
Non-critical_IP_ROB_Stalls_Bucket_2: 276584
Critical_IP_ROB_Stalls_Bucket_3: 242
Non-critical_IP_ROB_Stalls_Bucket_3: 78225
Critical_IP_ROB_Stalls_Bucket_4: 63
Non-critical_IP_ROB_Stalls_Bucket_4: 19210
Critical_IP_ROB_Stalls_Bucket_5: 35
Non-critical_IP_ROB_Stalls_Bucket_5: 9171
Critical_IP_ROB_Stalls_Bucket_6: 93
Non-critical_IP_ROB_Stalls_Bucket_6: 15336
0 => IPs accounting for >50 percent of stalls, 1 => 55, 2 => 60, 3 => 65 and so on till 90.
percent50: inf num IPs:  1
percent55: inf num IPs: 1
percent60: inf num IPs: 1
percent65: inf num IPs: 1
percent70: inf num IPs: 1
percent75: inf num IPs: 1
percent80: inf num IPs: 1
percent85: inf num IPs: 1
percent90: inf num IPs: 1
Critical_ROB_Stalls_Percent_0_Bucket_0: 1733
Non-critical_ROB_Stalls_Percent_0_Bucket_0: 2278013
Critical_ROB_Stalls_Percent_0_Bucket_1: 38599
Non-critical_ROB_Stalls_Percent_0_Bucket_1: 687688
Critical_ROB_Stalls_Percent_0_Bucket_2: 15613
Non-critical_ROB_Stalls_Percent_0_Bucket_2: 261703
Critical_ROB_Stalls_Percent_0_Bucket_3: 1884
Non-critical_ROB_Stalls_Percent_0_Bucket_3: 76583
Critical_ROB_Stalls_Percent_0_Bucket_4: 1
Non-critical_ROB_Stalls_Percent_0_Bucket_4: 19272
Critical_ROB_Stalls_Percent_0_Bucket_5: 0
Non-critical_ROB_Stalls_Percent_0_Bucket_5: 9206
Critical_ROB_Stalls_Percent_0_Bucket_6: 0
Non-critical_ROB_Stalls_Percent_0_Bucket_6: 15429
Critical_ROB_Stalls_Percent_1_Bucket_0: 1733
Non-critical_ROB_Stalls_Percent_1_Bucket_0: 2278013
Critical_ROB_Stalls_Percent_1_Bucket_1: 38599
Non-critical_ROB_Stalls_Percent_1_Bucket_1: 687688
Critical_ROB_Stalls_Percent_1_Bucket_2: 15613
Non-critical_ROB_Stalls_Percent_1_Bucket_2: 261703
Critical_ROB_Stalls_Percent_1_Bucket_3: 1884
Non-critical_ROB_Stalls_Percent_1_Bucket_3: 76583
Critical_ROB_Stalls_Percent_1_Bucket_4: 1
Non-critical_ROB_Stalls_Percent_1_Bucket_4: 19272
Critical_ROB_Stalls_Percent_1_Bucket_5: 0
Non-critical_ROB_Stalls_Percent_1_Bucket_5: 9206
Critical_ROB_Stalls_Percent_1_Bucket_6: 0
Non-critical_ROB_Stalls_Percent_1_Bucket_6: 15429
Critical_ROB_Stalls_Percent_2_Bucket_0: 1733
Non-critical_ROB_Stalls_Percent_2_Bucket_0: 2278013
Critical_ROB_Stalls_Percent_2_Bucket_1: 38599
Non-critical_ROB_Stalls_Percent_2_Bucket_1: 687688
Critical_ROB_Stalls_Percent_2_Bucket_2: 15613
Non-critical_ROB_Stalls_Percent_2_Bucket_2: 261703
Critical_ROB_Stalls_Percent_2_Bucket_3: 1884
Non-critical_ROB_Stalls_Percent_2_Bucket_3: 76583
Critical_ROB_Stalls_Percent_2_Bucket_4: 1
Non-critical_ROB_Stalls_Percent_2_Bucket_4: 19272
Critical_ROB_Stalls_Percent_2_Bucket_5: 0
Non-critical_ROB_Stalls_Percent_2_Bucket_5: 9206
Critical_ROB_Stalls_Percent_2_Bucket_6: 0
Non-critical_ROB_Stalls_Percent_2_Bucket_6: 15429
Critical_ROB_Stalls_Percent_3_Bucket_0: 1733
Non-critical_ROB_Stalls_Percent_3_Bucket_0: 2278013
Critical_ROB_Stalls_Percent_3_Bucket_1: 38599
Non-critical_ROB_Stalls_Percent_3_Bucket_1: 687688
Critical_ROB_Stalls_Percent_3_Bucket_2: 15613
Non-critical_ROB_Stalls_Percent_3_Bucket_2: 261703
Critical_ROB_Stalls_Percent_3_Bucket_3: 1884
Non-critical_ROB_Stalls_Percent_3_Bucket_3: 76583
Critical_ROB_Stalls_Percent_3_Bucket_4: 1
Non-critical_ROB_Stalls_Percent_3_Bucket_4: 19272
Critical_ROB_Stalls_Percent_3_Bucket_5: 0
Non-critical_ROB_Stalls_Percent_3_Bucket_5: 9206
Critical_ROB_Stalls_Percent_3_Bucket_6: 0
Non-critical_ROB_Stalls_Percent_3_Bucket_6: 15429
Critical_ROB_Stalls_Percent_4_Bucket_0: 1733
Non-critical_ROB_Stalls_Percent_4_Bucket_0: 2278013
Critical_ROB_Stalls_Percent_4_Bucket_1: 38599
Non-critical_ROB_Stalls_Percent_4_Bucket_1: 687688
Critical_ROB_Stalls_Percent_4_Bucket_2: 15613
Non-critical_ROB_Stalls_Percent_4_Bucket_2: 261703
Critical_ROB_Stalls_Percent_4_Bucket_3: 1884
Non-critical_ROB_Stalls_Percent_4_Bucket_3: 76583
Critical_ROB_Stalls_Percent_4_Bucket_4: 1
Non-critical_ROB_Stalls_Percent_4_Bucket_4: 19272
Critical_ROB_Stalls_Percent_4_Bucket_5: 0
Non-critical_ROB_Stalls_Percent_4_Bucket_5: 9206
Critical_ROB_Stalls_Percent_4_Bucket_6: 0
Non-critical_ROB_Stalls_Percent_4_Bucket_6: 15429
Critical_ROB_Stalls_Percent_5_Bucket_0: 1733
Non-critical_ROB_Stalls_Percent_5_Bucket_0: 2278013
Critical_ROB_Stalls_Percent_5_Bucket_1: 38599
Non-critical_ROB_Stalls_Percent_5_Bucket_1: 687688
Critical_ROB_Stalls_Percent_5_Bucket_2: 15613
Non-critical_ROB_Stalls_Percent_5_Bucket_2: 261703
Critical_ROB_Stalls_Percent_5_Bucket_3: 1884
Non-critical_ROB_Stalls_Percent_5_Bucket_3: 76583
Critical_ROB_Stalls_Percent_5_Bucket_4: 1
Non-critical_ROB_Stalls_Percent_5_Bucket_4: 19272
Critical_ROB_Stalls_Percent_5_Bucket_5: 0
Non-critical_ROB_Stalls_Percent_5_Bucket_5: 9206
Critical_ROB_Stalls_Percent_5_Bucket_6: 0
Non-critical_ROB_Stalls_Percent_5_Bucket_6: 15429
Critical_ROB_Stalls_Percent_6_Bucket_0: 1733
Non-critical_ROB_Stalls_Percent_6_Bucket_0: 2278013
Critical_ROB_Stalls_Percent_6_Bucket_1: 38599
Non-critical_ROB_Stalls_Percent_6_Bucket_1: 687688
Critical_ROB_Stalls_Percent_6_Bucket_2: 15613
Non-critical_ROB_Stalls_Percent_6_Bucket_2: 261703
Critical_ROB_Stalls_Percent_6_Bucket_3: 1884
Non-critical_ROB_Stalls_Percent_6_Bucket_3: 76583
Critical_ROB_Stalls_Percent_6_Bucket_4: 1
Non-critical_ROB_Stalls_Percent_6_Bucket_4: 19272
Critical_ROB_Stalls_Percent_6_Bucket_5: 0
Non-critical_ROB_Stalls_Percent_6_Bucket_5: 9206
Critical_ROB_Stalls_Percent_6_Bucket_6: 0
Non-critical_ROB_Stalls_Percent_6_Bucket_6: 15429
Critical_ROB_Stalls_Percent_7_Bucket_0: 1733
Non-critical_ROB_Stalls_Percent_7_Bucket_0: 2278013
Critical_ROB_Stalls_Percent_7_Bucket_1: 38599
Non-critical_ROB_Stalls_Percent_7_Bucket_1: 687688
Critical_ROB_Stalls_Percent_7_Bucket_2: 15613
Non-critical_ROB_Stalls_Percent_7_Bucket_2: 261703
Critical_ROB_Stalls_Percent_7_Bucket_3: 1884
Non-critical_ROB_Stalls_Percent_7_Bucket_3: 76583
Critical_ROB_Stalls_Percent_7_Bucket_4: 1
Non-critical_ROB_Stalls_Percent_7_Bucket_4: 19272
Critical_ROB_Stalls_Percent_7_Bucket_5: 0
Non-critical_ROB_Stalls_Percent_7_Bucket_5: 9206
Critical_ROB_Stalls_Percent_7_Bucket_6: 0
Non-critical_ROB_Stalls_Percent_7_Bucket_6: 15429
Critical_ROB_Stalls_Percent_8_Bucket_0: 1733
Non-critical_ROB_Stalls_Percent_8_Bucket_0: 2278013
Critical_ROB_Stalls_Percent_8_Bucket_1: 38599
Non-critical_ROB_Stalls_Percent_8_Bucket_1: 687688
Critical_ROB_Stalls_Percent_8_Bucket_2: 15613
Non-critical_ROB_Stalls_Percent_8_Bucket_2: 261703
Critical_ROB_Stalls_Percent_8_Bucket_3: 1884
Non-critical_ROB_Stalls_Percent_8_Bucket_3: 76583
Critical_ROB_Stalls_Percent_8_Bucket_4: 1
Non-critical_ROB_Stalls_Percent_8_Bucket_4: 19272
Critical_ROB_Stalls_Percent_8_Bucket_5: 0
Non-critical_ROB_Stalls_Percent_8_Bucket_5: 9206
Critical_ROB_Stalls_Percent_8_Bucket_6: 0
Non-critical_ROB_Stalls_Percent_8_Bucket_6: 15429
Average ROB occupancy Load Stall Begin: 39.8206
Average ROB occupancy Load Stall End: 48.1017
Min ROB occupancy Load Stall Begin: 1
Max ROB occupancy Load Stall Begin: 352
Min ROB occupancy Load Stall End: 1
Max ROB occupancy Load Stall End: 352
Average ROB occupancy Critical Load Stall Begin: 36.2794
Average ROB occupancy Critical Load Stall End: 44.9947
Min ROB occupancy Critical Load Stall Begin: 3
Max ROB occupancy Critical Load Stall Begin: 352
Min ROB occupancy Critical Load Stall End: 2
Max ROB occupancy Critical Load Stall End: 352
 ROB Load Stall Begin Bucket Count 0: 2515148
 ROB Load Stall End Bucket Count 0: 2279746
 ROB Critical Load Stall Begin Bucket Count 0: 1821
 ROB Critical Load Stall End Bucket Count 0: 1679
 ROB Load Stall Begin Bucket Count 1: 589817
 ROB Load Stall End Bucket Count 1: 726287
 ROB Critical Load Stall Begin Bucket Count 1: 278
 ROB Critical Load Stall End Bucket Count 1: 385
 ROB Load Stall Begin Bucket Count 2: 206868
 ROB Load Stall End Bucket Count 2: 277316
 ROB Critical Load Stall Begin Bucket Count 2: 93
 ROB Critical Load Stall End Bucket Count 2: 124
 ROB Load Stall Begin Bucket Count 3: 55729
 ROB Load Stall End Bucket Count 3: 78467
 ROB Critical Load Stall Begin Bucket Count 3: 20
 ROB Critical Load Stall End Bucket Count 3: 28
 ROB Load Stall Begin Bucket Count 4: 15775
 ROB Load Stall End Bucket Count 4: 19273
 ROB Critical Load Stall Begin Bucket Count 4: 7
 ROB Critical Load Stall End Bucket Count 4: 8
 ROB Load Stall Begin Bucket Count 5: 8292
 ROB Load Stall End Bucket Count 5: 9206
 ROB Critical Load Stall Begin Bucket Count 5: 6
 ROB Critical Load Stall End Bucket Count 5: 6
 ROB Load Stall Begin Bucket Count 6: 14095
 ROB Load Stall End Bucket Count 6: 15429
 ROB Critical Load Stall Begin Bucket Count 6: 26
 ROB Critical Load Stall End Bucket Count 6: 28
PIST Tag Read Accesses: 0
PIST Read Accesses: 0
PIST Tag Write Accesses: 0
PIST Write Accesses: 0
Criticality detector called times: 0
Max global_stall_cycles_count: 0
Threshold Modified: 0 times, factor: 0
Sturdy critical IP cache stats: 
 Unused entries: 0
CIC Tag Read Accesses: 0
CIC Read Accesses: 0
CIC Tag Write Accesses: 0
CIC Write Accesses: 0
Wobbly critical IP cache stats: 
 Unused entries: 0
CIC Tag Read Accesses: 148969739
CIC Read Accesses: 0
CIC Tag Write Accesses: 122392
CIC Write Accesses: 0
ITLB TOTAL     ACCESS:    9961295  HIT:    9358028  MISS:     603267  HIT %:    93.9439  MISS %:    6.05611   MPKI: 12.0653
ITLB LOAD TRANSLATION ACCESS:    8166432  HIT:    8084056  MISS:      82376  HIT %:    98.9913  MISS %:    1.00871   MPKI: 1.64752
ITLB TRANSLATION FROM L1D PREFETCHER ACCESS:    1794863  HIT:    1273972  MISS:     520891  HIT %:    70.9788  MISS %:    29.0212   MPKI: 10.4178
ITLB PREFETCH  REQUESTED:          0  ISSUED:          0  USEFUL:     410764  USELESS:     110127
ITLB USEFUL LOAD PREFETCHES:     410764 PREFETCH ISSUED TO LOWER LEVEL:          0  ACCURACY: inf
ITLB TIMELY PREFETCHES:     410764 LATE PREFETCHES: 259 DROPPED PREFETCHES: 3280
ITLB PREFETCHES SAME FILL-ORIGIN LEVEL: 0 DIFFERENT FILL-ORIGIN LEVEL: 0
ITLB AVERAGE MISS LATENCY: 23411.6 cycles
ITLB RQ	ACCESS:   14642782	FORWARD:          0	MERGED:    4637858	TO_CACHE:   10004924

DTLB TOTAL     ACCESS:   11439976  HIT:   10987707  MISS:     452269  HIT %:    96.0466  MISS %:    3.95341   MPKI: 9.04538
DTLB LOAD TRANSLATION ACCESS:   11439976  HIT:   10987707  MISS:     452269  HIT %:    96.0466  MISS %:    3.95341   MPKI: 9.04538
DTLB PREFETCH  REQUESTED:          0  ISSUED:          0  USEFUL:          0  USELESS:          0
DTLB USEFUL LOAD PREFETCHES:          0 PREFETCH ISSUED TO LOWER LEVEL:          0  ACCURACY: -nan
DTLB TIMELY PREFETCHES:          0 LATE PREFETCHES: 0 DROPPED PREFETCHES: 0
DTLB PREFETCHES SAME FILL-ORIGIN LEVEL: 0 DIFFERENT FILL-ORIGIN LEVEL: 0
DTLB AVERAGE MISS LATENCY: 9.30887 cycles
DTLB RQ	ACCESS:   14982274	FORWARD:          0	MERGED:    3518795	TO_CACHE:   11463479

STLB TOTAL     ACCESS:    1058459  HIT:    1056260  MISS:       2199  HIT %:    99.7922  MISS %:   0.207755   MPKI: 0.04398
STLB LOAD TRANSLATION ACCESS:     534386  HIT:     532486  MISS:       1900  HIT %:    99.6445  MISS %:   0.355548   MPKI: 0.038
STLB TRANSLATION FROM L1D PREFETCHER ACCESS:     524073  HIT:     523774  MISS:        299  HIT %:    99.9429  MISS %:  0.0570531   MPKI: 0.00598
STLB PREFETCH  REQUESTED:          0  ISSUED:          0  USEFUL:        268  USELESS:         31
STLB USEFUL LOAD PREFETCHES:        268 PREFETCH ISSUED TO LOWER LEVEL:          0  ACCURACY: inf
STLB TIMELY PREFETCHES:        268 LATE PREFETCHES: 0 DROPPED PREFETCHES: 3280
STLB PREFETCHES SAME FILL-ORIGIN LEVEL: 0 DIFFERENT FILL-ORIGIN LEVEL: 0
STLB AVERAGE MISS LATENCY: 71.6508 cycles
STLB RQ	ACCESS:    1062278	FORWARD:          0	MERGED:        539	TO_CACHE:    1061739

STLB Hit, L1D data hit: 0
STLB Hit, L2C data hit: 0
STLB Hit, LLC data hit: 0
STLB Hit, LLC data miss: 0
STLB STLB hints to L2: 0
L1D TOTAL     ACCESS:   14551460  HIT:   13649132  MISS:     902328  HIT %:    93.7991  MISS %:    6.20094   MPKI: 18.0466
L1D LOAD      ACCESS:    8071246  HIT:    7422018  MISS:     649228  HIT %:    91.9563  MISS %:    8.04371   MPKI: 12.9846
L1D RFO       ACCESS:    6477082  HIT:    6225402  MISS:     251680  HIT %:    96.1143  MISS %:     3.8857   MPKI: 5.0336
L1D PREFETCH  ACCESS:       3132  HIT:       1712  MISS:       1420  HIT %:    54.6616  MISS %:    45.3384   MPKI: 0.0284
L1D PREFETCH  REQUESTED:       6935  ISSUED:       6935  USEFUL:        284  USELESS:       1149
L1D USEFUL LOAD PREFETCHES:        284 PREFETCH ISSUED TO LOWER LEVEL:       1551  ACCURACY: 18.3108
L1D TIMELY PREFETCHES:        284 LATE PREFETCHES: 131 DROPPED PREFETCHES: 0
L1D PREFETCHES SAME FILL-ORIGIN LEVEL: 1551 DIFFERENT FILL-ORIGIN LEVEL: 0
L1D AVERAGE MISS LATENCY: 10781.7 cycles
L1D RQ	ACCESS:   11581662	FORWARD:          0	MERGED:    3331729	TO_CACHE:    8097076
L1D WQ	ACCESS:    6957599	FORWARD:     152868	MERGED:      72401	TO_CACHE:    6885198
L1D PQ	ACCESS:       3473	FORWARD:          0	MERGED:          0	TO_CACHE:       3462

L1D UNIQUE REGIONS ACCESSED: 0
L1D REGIONS CONFLICTS: 0
L1D Cross Page Prefetch Requests: 0
L1D Same Page Prefetch Requests: 268668
L1D ROI Sum of L1D PQ occupancy: 45227
L1D PREFETCHES PUSHED FROM L2C: 0
L1I TOTAL     ACCESS:   14514292  HIT:   10861405  MISS:    3652887  HIT %:    74.8325  MISS %:    25.1675   MPKI: 73.0577
L1I LOAD      ACCESS:    9573429  HIT:    9334239  MISS:     239190  HIT %:    97.5015  MISS %:    2.49848   MPKI: 4.7838
L1I PREFETCH  ACCESS:    4940863  HIT:    1527166  MISS:    3413697  HIT %:    30.9089  MISS %:    69.0911   MPKI: 68.2739
L1I PREFETCH  REQUESTED:    5168876  ISSUED:    5161297  USEFUL:    2309639  USELESS:    1104089
L1I USEFUL LOAD PREFETCHES:    2309639 PREFETCH ISSUED TO LOWER LEVEL:    3439676  ACCURACY: 67.147
L1I TIMELY PREFETCHES:    2309639 LATE PREFETCHES: 25977 DROPPED PREFETCHES: 8489
L1I PREFETCHES SAME FILL-ORIGIN LEVEL: 3439676 DIFFERENT FILL-ORIGIN LEVEL: 0
L1I AVERAGE MISS LATENCY: 355919 cycles
L1I RQ	ACCESS:   13674564	FORWARD:          0	MERGED:    4082625	TO_CACHE:    9591939
L1I PQ	ACCESS:    5161297	FORWARD:          0	MERGED:     110454	TO_CACHE:    5050843

BTB TOTAL     ACCESS:    6187548  HIT:    4393594  MISS:    1793954  HIT %:     71.007  MISS %:     28.993   MPKI: 35.8791
BTB BRANCH_DIRECT_JUMP	ACCESS:     531697  HIT:     378294  MISS:     153403
BTB BRANCH_INDIRECT	ACCESS:     199023  HIT:     166589  MISS:      32434
BTB BRANCH_CONDITIONAL	ACCESS:    3068015  HIT:    2579394  MISS:     488621
BTB BRANCH_DIRECT_CALL	ACCESS:    1010905  HIT:     656135  MISS:     354770
BTB BRANCH_INDIRECT_CALL	ACCESS:     183501  HIT:     115238  MISS:      68263
BTB BRANCH_RETURN	ACCESS:    1194407  HIT:     497944  MISS:     696463
BTB BRANCH_OTHER ACCESS:          0  HIT:          0  MISS:          0

L2C TOTAL     ACCESS:    5011273  HIT:    4569472  MISS:     441801  HIT %:    91.1839  MISS %:    8.81614   MPKI: 8.83602
L2C LOAD      ACCESS:     862280  HIT:     730038  MISS:     132242  HIT %:    84.6637  MISS %:    15.3363   MPKI: 2.64484
L2C DATA LOAD MPKI: 2.10486
L2C INSTRUCTION LOAD MPKI: 0.53998
L2C RFO       ACCESS:     251680  HIT:     198672  MISS:      53008  HIT %:    78.9383  MISS %:    21.0617   MPKI: 1.06016
L2C PREFETCH  ACCESS:    3441227  HIT:    3208247  MISS:     232980  HIT %:    93.2297  MISS %:    6.77026   MPKI: 4.6596
L2C DATA PREFETCH MPKI: 0.01552
L2C INSTRUCTION PREFETCH MPKI: 4.64408
L2C WRITEBACK ACCESS:     450119  HIT:     428375  MISS:      21744  HIT %:    95.1693  MISS %:    4.83072   MPKI: 0.43488
L2C LOAD TRANSLATION ACCESS:       2043  HIT:        561  MISS:       1482  HIT %:    27.4596  MISS %:    72.5404   MPKI: 0.02964
L2C TRANSLATION FROM L1D PREFETCHER ACCESS:       3924  HIT:       3579  MISS:        345  HIT %:     91.208  MISS %:    8.79205   MPKI: 0.0069
L2C PREFETCH  REQUESTED:          0  ISSUED:          0  USEFUL:       4766  USELESS:     229052
L2C USEFUL LOAD PREFETCHES:       4766 PREFETCH ISSUED TO LOWER LEVEL:     232980  ACCURACY: 2.04567
L2C TIMELY PREFETCHES:       4766 LATE PREFETCHES: 0 DROPPED PREFETCHES: 0
L2C PREFETCHES SAME FILL-ORIGIN LEVEL: 0 DIFFERENT FILL-ORIGIN LEVEL: 0
L2C AVERAGE MISS LATENCY: 35.7772 cycles
L2C RQ	ACCESS:    1119957	FORWARD:          0	MERGED:          0	TO_CACHE:    1119927
L2C WQ	ACCESS:     450119	FORWARD:         30	MERGED:          0	TO_CACHE:     450119
L2C PQ	ACCESS:    3441227	FORWARD:          0	MERGED:          0	TO_CACHE:    3441227

L2C Instructions Evicting Data 99897
L2C Translations Evicting Data 1064
L2C Data Evicting Data 71752
L2C Instructions Evicting Instructions 158571
L2C Translations Evicting Instructions 737
L2C Data Evicting Instructions 86296
L2C Instructions Evicting Translations 735
L2C Translations Evicting Translations 26
L2C Data Evicting Translations 979
L2C Dense regions hint from L2: 0
PSCL5 TOTAL     ACCESS:       5479  HIT:       5479  MISS:          0  HIT %:        100  MISS %:          0   MPKI: 0
PSCL5 LOAD TRANSLATION ACCESS:       1900  HIT:       1900  MISS:          0  HIT %:        100  MISS %:          0   MPKI: 0
PSCL5 TRANSLATION FROM L1D PREFETCHER ACCESS:       3579  HIT:       3579  MISS:          0  HIT %:        100  MISS %:          0   MPKI: 0
PSCL5 PREFETCH  REQUESTED:          0  ISSUED:          0  USEFUL:          0  USELESS:          0
PSCL5 USEFUL LOAD PREFETCHES:          0 PREFETCH ISSUED TO LOWER LEVEL:          0  ACCURACY: -nan
PSCL5 TIMELY PREFETCHES:          0 LATE PREFETCHES: 0 DROPPED PREFETCHES: 0
PSCL5 PREFETCHES SAME FILL-ORIGIN LEVEL: 0 DIFFERENT FILL-ORIGIN LEVEL: 0

PSCL4 TOTAL     ACCESS:       3666  HIT:       3652  MISS:         14  HIT %:    99.6181  MISS %:   0.381888   MPKI: 0.00028
PSCL4 LOAD TRANSLATION ACCESS:       1322  HIT:       1308  MISS:         14  HIT %:     98.941  MISS %:      1.059   MPKI: 0.00028
PSCL4 TRANSLATION FROM L1D PREFETCHER ACCESS:       2344  HIT:       2344  MISS:          0  HIT %:        100  MISS %:          0   MPKI: 0
PSCL4 PREFETCH  REQUESTED:          0  ISSUED:          0  USEFUL:          0  USELESS:          0
PSCL4 USEFUL LOAD PREFETCHES:          0 PREFETCH ISSUED TO LOWER LEVEL:          0  ACCURACY: -nan
PSCL4 TIMELY PREFETCHES:          0 LATE PREFETCHES: 0 DROPPED PREFETCHES: 0
PSCL4 PREFETCHES SAME FILL-ORIGIN LEVEL: 0 DIFFERENT FILL-ORIGIN LEVEL: 0

PSCL3 TOTAL     ACCESS:       5338  HIT:       5314  MISS:         24  HIT %:    99.5504  MISS %:   0.449607   MPKI: 0.00048
PSCL3 LOAD TRANSLATION ACCESS:       1840  HIT:       1816  MISS:         24  HIT %:    98.6957  MISS %:    1.30435   MPKI: 0.00048
PSCL3 TRANSLATION FROM L1D PREFETCHER ACCESS:       3498  HIT:       3498  MISS:          0  HIT %:        100  MISS %:          0   MPKI: 0
PSCL3 PREFETCH  REQUESTED:          0  ISSUED:          0  USEFUL:          0  USELESS:          0
PSCL3 USEFUL LOAD PREFETCHES:          0 PREFETCH ISSUED TO LOWER LEVEL:          0  ACCURACY: -nan
PSCL3 TIMELY PREFETCHES:          0 LATE PREFETCHES: 0 DROPPED PREFETCHES: 0
PSCL3 PREFETCHES SAME FILL-ORIGIN LEVEL: 0 DIFFERENT FILL-ORIGIN LEVEL: 0

PSCL2 TOTAL     ACCESS:       5159  HIT:       5025  MISS:        134  HIT %:    97.4026  MISS %:     2.5974   MPKI: 0.00268
PSCL2 LOAD TRANSLATION ACCESS:       1922  HIT:       1788  MISS:        134  HIT %:    93.0281  MISS %:     6.9719   MPKI: 0.00268
PSCL2 TRANSLATION FROM L1D PREFETCHER ACCESS:       3237  HIT:       3237  MISS:          0  HIT %:        100  MISS %:          0   MPKI: 0
PSCL2 PREFETCH  REQUESTED:          0  ISSUED:          0  USEFUL:          0  USELESS:          0
PSCL2 USEFUL LOAD PREFETCHES:          0 PREFETCH ISSUED TO LOWER LEVEL:          0  ACCURACY: -nan
PSCL2 TIMELY PREFETCHES:          0 LATE PREFETCHES: 0 DROPPED PREFETCHES: 0
PSCL2 PREFETCHES SAME FILL-ORIGIN LEVEL: 0 DIFFERENT FILL-ORIGIN LEVEL: 0

LLC TOTAL     ACCESS:     494567  HIT:     473649  MISS:      20918  HIT %:    95.7704  MISS %:    4.22956   MPKI: 0.41836
LLC LOAD      ACCESS:     132239  HIT:     123812  MISS:       8427  HIT %:    93.6274  MISS %:    6.37255   MPKI: 0.16854
LLC RFO       ACCESS:      53008  HIT:      41762  MISS:      11246  HIT %:    78.7843  MISS %:    21.2157   MPKI: 0.22492
LLC PREFETCH  ACCESS:     232980  HIT:     232152  MISS:        828  HIT %:    99.6446  MISS %:   0.355395   MPKI: 0.01656
LLC WRITEBACK ACCESS:      74513  HIT:      74222  MISS:        291  HIT %:    99.6095  MISS %:   0.390536   MPKI: 0.00582
LLC LOAD TRANSLATION ACCESS:       1482  HIT:       1367  MISS:        115  HIT %:    92.2402  MISS %:    7.75978   MPKI: 0.0023
LLC TRANSLATION FROM L1D PREFETCHER ACCESS:        345  HIT:        334  MISS:         11  HIT %:    96.8116  MISS %:    3.18841   MPKI: 0.00022
LLC PREFETCH  REQUESTED:          0  ISSUED:          0  USEFUL:        602  USELESS:       3254
LLC USEFUL LOAD PREFETCHES:        602 PREFETCH ISSUED TO LOWER LEVEL:        828  ACCURACY: 72.7053
LLC TIMELY PREFETCHES:        602 LATE PREFETCHES: 0 DROPPED PREFETCHES: 0
LLC PREFETCHES SAME FILL-ORIGIN LEVEL: 0 DIFFERENT FILL-ORIGIN LEVEL: 0
LLC AVERAGE MISS LATENCY: 151.795 cycles
LLC RQ	ACCESS:     187077	FORWARD:          0	MERGED:          0	TO_CACHE:     187074
LLC WQ	ACCESS:      74513	FORWARD:          3	MERGED:          0	TO_CACHE:      74513
LLC PQ	ACCESS:     232980	FORWARD:          0	MERGED:          0	TO_CACHE:     232980

LLC Dense regions hint to LLC: 0

RAW hits: 1158983
Loads Generated: 12740644
Loads sent to L1D: 11581662
Stores Generated: 6957596
Stores sent to L1D: 6957599
Major fault: 0 Minor fault: 2563
Allocated PAGES: 2563
I-Shadow cache 408 bytes
Touched + WorthPF tables 6144 bytes 
MMA filter 174 bytes 
FNL filter 272 bytes 
TOTAL PREFETCHER STORAGE SIZE: 25174 bytes
CPU 0 L1I next line prefetcher final stats

stream: 
stream:times selected: 385219
stream:pref_filled: 50597
stream:pref_useful: 12249
stream:pref_late: 5294
stream:misses: 2178
stream:misses_by_poll: 0

CS: 
CS:times selected: 36032
CS:pref_filled: 19134
CS:pref_useful: 11586
CS:pref_late: 1121
CS:misses: 3042
CS:misses_by_poll: 0

CPLX: 
CPLX:times selected: 348400
CPLX:pref_filled: 7353
CPLX:pref_useful: 2226
CPLX:pref_late: 683
CPLX:misses: 28712
CPLX:misses_by_poll: 0

NL_L1: 
NL:times selected: 2698
NL:pref_filled: 164
NL:pref_useful: 30
NL:pref_late: 2
NL:misses: 49
NL:misses_by_poll: 0

total selections: 772349
total_filled: 1420
total_useful: 284
total_late: 7268
total_polluted: 0
total_misses_after_warmup: 2599
conflicts: 420
Degree Incremented Times: 0
Degree Decremented Times: 30979

L1 IP Table Write Accesses: 12377
L1 IP Table Read Accesses: 11957
L1 RST Write Accesses: 7037
L1 RST Read Accesses: 14074
L1 CSPT Write Accesses: 7037
L1 CSPT Read Accesses: 9715
L1 RR Filter Tag Write Accesses: 3473
L1 RR Filter Tag Read Accesses: 445767
L1 IP Table Tag Write Accesses: 13268
L1 IP Table Tag Read Accesses: 13268
L1 RST Tag Write Accesses: 0
L1 RST Tag Read Accesses: 76186
L1 RR Filter Write Accesses: 0
L1 RR Filter Read Accesses: 21186
test: 40449

DRAM Statistics
 CHANNEL 0
 RQ ROW_BUFFER_HIT:       7475  ROW_BUFFER_MISS:      13151
 DBUS_CONGESTED:          1
 WQ ROW_BUFFER_HIT:       1012  ROW_BUFFER_MISS:       9240  FULL:          0

 AVG_CONGESTED_CYCLE: 4
 All warmup complete: 2
Channel 0 Bank busy for read cycles: 0
Channel 0 Bank busy for write cycles: 0
Channel 0
Rank 0
0banks busy for read cycles: 76103967
0banks busy for write cycles: 2402
1banks busy for read cycles: 1019835
1banks busy for write cycles: 339818
2banks busy for read cycles: 108876
2banks busy for write cycles: 112104
3banks busy for read cycles: 52102
3banks busy for write cycles: 82045
4banks busy for read cycles: 27503
4banks busy for write cycles: 70235
5banks busy for read cycles: 22884
5banks busy for write cycles: 58931
6banks busy for read cycles: 24150
6banks busy for write cycles: 52456
7banks busy for read cycles: 24928
7banks busy for write cycles: 52054
8banks busy for read cycles: 52239
8banks busy for write cycles: 76923

CPU 0 Branch Prediction Accuracy: 99.8142% MPKI: 0.34676 Average ROB Occupancy at Mispredict: 70.0077
Branch types
NOT_BRANCH: 40668673 81.3373%
BRANCH_DIRECT_JUMP: 531697 1.06339%
BRANCH_INDIRECT: 199023 0.398046%
BRANCH_CONDITIONAL: 6211453 12.4229%
BRANCH_DIRECT_CALL: 1010905 2.02181%
BRANCH_INDIRECT_CALL: 183501 0.367002%
BRANCH_RETURN: 1194407 2.38881%
BRANCH_OTHER: 0 0%

DRAM PAGES: 1048576
Allocated PAGES: 2563
