Initialize SIGNATURE TABLE
ST_SET: 1
ST_WAY: 256
ST_TAG_BIT: 16
ST_TAG_MASK: ffff

Initialize PATTERN TABLE
PT_SET: 512
PT_WAY: 4
SIG_DELTA_BIT: 7
C_SIG_BIT: 4
C_DELTA_BIT: 4

Initialize PREFETCH FILTER
FILTER_SET: 1024

*** ChampSim Multicore Out-of-Order Simulator ***

Warmup Instructions: 50000000
Simulation Instructions: 50000000
Number of CPUs: 1
LLC sets: 2048
LLC ways: 16
Off-chip DRAM Size: 4096 MB Channels: 1 Width: 64-bit Data Rate: 6400 MT/s
CPU 0 runs ../IPC-traces//server_033.champsimtrace.xz
.xz
NUM_OF_IPS_IN_CRITICAL_IP_TRAINING: 64
NUM_OF_CRITICAL_IP_TRAINING_TABLE_WAYS: 2
NUM_OF_CRITICAL_IP_TRAINING_TABLE_SETS: 32
WOBBLY_CRITICAL_IP_CACHE_SETS: 32
WOBBLY_CRITICAL_IP_CACHE_WAYS: 4
BTB has LRU replacement policy
ITLB has LRU replacement policy
DTLB has LRU replacement policy
STLB has LRU replacement policy
CPU 0 L1I next line prefetcher
L1I has LRU replacement policy
L1D has LRU replacement policy
Initialize SRRIP state for L2C
Initialize DRRIP state for LLC
Heartbeat CPU 0 instructions: 10000001 cycles: 2763256 heartbeat IPC: 3.61892 cumulative IPC: 3.61892 (Simulation time: 0 hr 3 min 27 sec) 
Heartbeat CPU 0 instructions: 20000002 cycles: 5521455 heartbeat IPC: 3.62555 cumulative IPC: 3.62223 (Simulation time: 0 hr 6 min 16 sec) 
Heartbeat CPU 0 instructions: 30000003 cycles: 8281938 heartbeat IPC: 3.62255 cumulative IPC: 3.62234 (Simulation time: 0 hr 8 min 40 sec) 
Heartbeat CPU 0 instructions: 40000000 cycles: 11046247 heartbeat IPC: 3.61754 cumulative IPC: 3.62114 (Simulation time: 0 hr 10 min 47 sec) 
Heartbeat CPU 0 instructions: 50000000 cycles: 13811364 heartbeat IPC: 3.61648 cumulative IPC: 3.62021 (Simulation time: 0 hr 12 min 50 sec) 

Warmup complete CPU 0 instructions: 50000004 cycles: 13811365 (Simulation time: 0 hr 12 min 50 sec) 

Heartbeat CPU 0 instructions: 60000003 cycles: 26714128 heartbeat IPC: 0.775028 cumulative IPC: 0.775028 (Simulation time: 0 hr 15 min 8 sec) 
Heartbeat CPU 0 instructions: 70000000 cycles: 39556863 heartbeat IPC: 0.77865 cumulative IPC: 0.776835 (Simulation time: 0 hr 17 min 23 sec) 
Heartbeat CPU 0 instructions: 80000000 cycles: 53244179 heartbeat IPC: 0.730603 cumulative IPC: 0.760788 (Simulation time: 0 hr 19 min 43 sec) 
Heartbeat CPU 0 instructions: 90000003 cycles: 66322869 heartbeat IPC: 0.764603 cumulative IPC: 0.761738 (Simulation time: 0 hr 21 min 58 sec) 
Heartbeat CPU 0 instructions: 100000000 cycles: 79207624 heartbeat IPC: 0.776111 cumulative IPC: 0.76457 (Simulation time: 0 hr 24 min 7 sec) 
Finished CPU 0 instructions: 50000000 cycles: 65396272 cumulative IPC: 0.76457 (Simulation time: 0 hr 24 min 7 sec) 

ChampSim completed all CPUs

Region of Interest Statistics

CPU 0 cumulative IPC: 0.76457 instructions: 50000000 cycles: 65396272

CPU 0 Average Load ROB stall cycles: 1.69168e+07
CPU 0 Fraction of times ROB stalled by Loads: 36.4617
CPU 0 Percentage of Load stall cycles in Total stall cycles: 2.41951e+08
Issued all: 26580092
Issued LT all: 20803247
rob_not_full_when_issued_lt_all: 20229479
Issued LT one: 15710838
rob_not_full_when_issued_lt_one: 15190413
 Total stall cycles: 53438822
 Total load stall cycles: 129295962730442
CPU 0 NUM of IPS identified critical: 0
CPU 0 Num of Load IPs stalling ROB: 6984
Threshold modification factor: 0
Max PIST entries: 64
Min PIST entries: 0
Avg PIST entries: 32
Trouble in retire width: 0.860972
MaC = Marked as critical.
lt_50_percent_before_Mac: 0
gt_90_percent_before_Mac: 0
gt_75_percent_before_Mac: 0
gt_50_percent_before_Mac: 0
stall_proportion_bin_same_before_after: 0
stall_proportion_bin_lower_before_after: 0
stall_proportion_bin_upper_before_after: 0
average_stall_proportion_before: -nan
average_stall_proportion_after: -nan
Critical IP stalls, total frequency: 0
Non-critical IP stalls, total frequency: 2786788
Total Freq all stalling IPs: 2786788
stat_90_percent_critical_ip_stalls_freq: 2508506
stat_90_percent_non_critical_ip_stalls_freq: 278282
Critical_IP_ROB_Stalls_Bucket_0: 0
Non-critical_IP_ROB_Stalls_Bucket_0: 1518801
Critical_IP_ROB_Stalls_Bucket_1: 0
Non-critical_IP_ROB_Stalls_Bucket_1: 843952
Critical_IP_ROB_Stalls_Bucket_2: 0
Non-critical_IP_ROB_Stalls_Bucket_2: 305451
Critical_IP_ROB_Stalls_Bucket_3: 0
Non-critical_IP_ROB_Stalls_Bucket_3: 82102
Critical_IP_ROB_Stalls_Bucket_4: 0
Non-critical_IP_ROB_Stalls_Bucket_4: 15468
Critical_IP_ROB_Stalls_Bucket_5: 0
Non-critical_IP_ROB_Stalls_Bucket_5: 2850
Critical_IP_ROB_Stalls_Bucket_6: 0
Non-critical_IP_ROB_Stalls_Bucket_6: 18164
0 => IPs accounting for >50 percent of stalls, 1 => 55, 2 => 60, 3 => 65 and so on till 90.
percent50: 50.0299 num IPs:  351
percent55: 55.0404 num IPs: 451
percent60: 60.0329 num IPs: 551
percent65: 65.0131 num IPs: 651
percent70: 70.0352 num IPs: 753
percent75: 75.0412 num IPs: 857
percent80: 80.0253 num IPs: 965
percent85: 85.0327 num IPs: 1084
percent90: 90.0143 num IPs: 1236
Critical_ROB_Stalls_Percent_0_Bucket_0: 806769
Non-critical_ROB_Stalls_Percent_0_Bucket_0: 712032
Critical_ROB_Stalls_Percent_0_Bucket_1: 398957
Non-critical_ROB_Stalls_Percent_0_Bucket_1: 444995
Critical_ROB_Stalls_Percent_0_Bucket_2: 148262
Non-critical_ROB_Stalls_Percent_0_Bucket_2: 157189
Critical_ROB_Stalls_Percent_0_Bucket_3: 26979
Non-critical_ROB_Stalls_Percent_0_Bucket_3: 55123
Critical_ROB_Stalls_Percent_0_Bucket_4: 7297
Non-critical_ROB_Stalls_Percent_0_Bucket_4: 8171
Critical_ROB_Stalls_Percent_0_Bucket_5: 1035
Non-critical_ROB_Stalls_Percent_0_Bucket_5: 1815
Critical_ROB_Stalls_Percent_0_Bucket_6: 4928
Non-critical_ROB_Stalls_Percent_0_Bucket_6: 13236
Critical_ROB_Stalls_Percent_1_Bucket_0: 862779
Non-critical_ROB_Stalls_Percent_1_Bucket_0: 656022
Critical_ROB_Stalls_Percent_1_Bucket_1: 457311
Non-critical_ROB_Stalls_Percent_1_Bucket_1: 386641
Critical_ROB_Stalls_Percent_1_Bucket_2: 163934
Non-critical_ROB_Stalls_Percent_1_Bucket_2: 141517
Critical_ROB_Stalls_Percent_1_Bucket_3: 34538
Non-critical_ROB_Stalls_Percent_1_Bucket_3: 47564
Critical_ROB_Stalls_Percent_1_Bucket_4: 7726
Non-critical_ROB_Stalls_Percent_1_Bucket_4: 7742
Critical_ROB_Stalls_Percent_1_Bucket_5: 1188
Non-critical_ROB_Stalls_Percent_1_Bucket_5: 1662
Critical_ROB_Stalls_Percent_1_Bucket_6: 6382
Non-critical_ROB_Stalls_Percent_1_Bucket_6: 11782
Critical_ROB_Stalls_Percent_2_Bucket_0: 906393
Non-critical_ROB_Stalls_Percent_2_Bucket_0: 612408
Critical_ROB_Stalls_Percent_2_Bucket_1: 504910
Non-critical_ROB_Stalls_Percent_2_Bucket_1: 339042
Critical_ROB_Stalls_Percent_2_Bucket_2: 198602
Non-critical_ROB_Stalls_Percent_2_Bucket_2: 106849
Critical_ROB_Stalls_Percent_2_Bucket_3: 46457
Non-critical_ROB_Stalls_Percent_2_Bucket_3: 35645
Critical_ROB_Stalls_Percent_2_Bucket_4: 9025
Non-critical_ROB_Stalls_Percent_2_Bucket_4: 6443
Critical_ROB_Stalls_Percent_2_Bucket_5: 1216
Non-critical_ROB_Stalls_Percent_2_Bucket_5: 1634
Critical_ROB_Stalls_Percent_2_Bucket_6: 6382
Non-critical_ROB_Stalls_Percent_2_Bucket_6: 11782
Critical_ROB_Stalls_Percent_3_Bucket_0: 963385
Non-critical_ROB_Stalls_Percent_3_Bucket_0: 555416
Critical_ROB_Stalls_Percent_3_Bucket_1: 557144
Non-critical_ROB_Stalls_Percent_3_Bucket_1: 286808
Critical_ROB_Stalls_Percent_3_Bucket_2: 219298
Non-critical_ROB_Stalls_Percent_3_Bucket_2: 86153
Critical_ROB_Stalls_Percent_3_Bucket_3: 54448
Non-critical_ROB_Stalls_Percent_3_Bucket_3: 27654
Critical_ROB_Stalls_Percent_3_Bucket_4: 9712
Non-critical_ROB_Stalls_Percent_3_Bucket_4: 5756
Critical_ROB_Stalls_Percent_3_Bucket_5: 1401
Non-critical_ROB_Stalls_Percent_3_Bucket_5: 1449
Critical_ROB_Stalls_Percent_3_Bucket_6: 6385
Non-critical_ROB_Stalls_Percent_3_Bucket_6: 11779
Critical_ROB_Stalls_Percent_4_Bucket_0: 1030699
Non-critical_ROB_Stalls_Percent_4_Bucket_0: 488102
Critical_ROB_Stalls_Percent_4_Bucket_1: 604985
Non-critical_ROB_Stalls_Percent_4_Bucket_1: 238967
Critical_ROB_Stalls_Percent_4_Bucket_2: 236382
Non-critical_ROB_Stalls_Percent_4_Bucket_2: 69069
Critical_ROB_Stalls_Percent_4_Bucket_3: 61260
Non-critical_ROB_Stalls_Percent_4_Bucket_3: 20842
Critical_ROB_Stalls_Percent_4_Bucket_4: 10468
Non-critical_ROB_Stalls_Percent_4_Bucket_4: 5000
Critical_ROB_Stalls_Percent_4_Bucket_5: 1512
Non-critical_ROB_Stalls_Percent_4_Bucket_5: 1338
Critical_ROB_Stalls_Percent_4_Bucket_6: 6425
Non-critical_ROB_Stalls_Percent_4_Bucket_6: 11739
Critical_ROB_Stalls_Percent_5_Bucket_0: 1103532
Non-critical_ROB_Stalls_Percent_5_Bucket_0: 415269
Critical_ROB_Stalls_Percent_5_Bucket_1: 648194
Non-critical_ROB_Stalls_Percent_5_Bucket_1: 195758
Critical_ROB_Stalls_Percent_5_Bucket_2: 252227
Non-critical_ROB_Stalls_Percent_5_Bucket_2: 53224
Critical_ROB_Stalls_Percent_5_Bucket_3: 67899
Non-critical_ROB_Stalls_Percent_5_Bucket_3: 14203
Critical_ROB_Stalls_Percent_5_Bucket_4: 11395
Non-critical_ROB_Stalls_Percent_5_Bucket_4: 4073
Critical_ROB_Stalls_Percent_5_Bucket_5: 1554
Non-critical_ROB_Stalls_Percent_5_Bucket_5: 1296
Critical_ROB_Stalls_Percent_5_Bucket_6: 6437
Non-critical_ROB_Stalls_Percent_5_Bucket_6: 11727
Critical_ROB_Stalls_Percent_6_Bucket_0: 1189940
Non-critical_ROB_Stalls_Percent_6_Bucket_0: 328861
Critical_ROB_Stalls_Percent_6_Bucket_1: 686280
Non-critical_ROB_Stalls_Percent_6_Bucket_1: 157672
Critical_ROB_Stalls_Percent_6_Bucket_2: 260164
Non-critical_ROB_Stalls_Percent_6_Bucket_2: 45287
Critical_ROB_Stalls_Percent_6_Bucket_3: 70060
Non-critical_ROB_Stalls_Percent_6_Bucket_3: 12042
Critical_ROB_Stalls_Percent_6_Bucket_4: 12994
Non-critical_ROB_Stalls_Percent_6_Bucket_4: 2474
Critical_ROB_Stalls_Percent_6_Bucket_5: 1732
Non-critical_ROB_Stalls_Percent_6_Bucket_5: 1118
Critical_ROB_Stalls_Percent_6_Bucket_6: 8962
Non-critical_ROB_Stalls_Percent_6_Bucket_6: 9202
Critical_ROB_Stalls_Percent_7_Bucket_0: 1277752
Non-critical_ROB_Stalls_Percent_7_Bucket_0: 241049
Critical_ROB_Stalls_Percent_7_Bucket_1: 725525
Non-critical_ROB_Stalls_Percent_7_Bucket_1: 118427
Critical_ROB_Stalls_Percent_7_Bucket_2: 269091
Non-critical_ROB_Stalls_Percent_7_Bucket_2: 36360
Critical_ROB_Stalls_Percent_7_Bucket_3: 72167
Non-critical_ROB_Stalls_Percent_7_Bucket_3: 9935
Critical_ROB_Stalls_Percent_7_Bucket_4: 13342
Non-critical_ROB_Stalls_Percent_7_Bucket_4: 2126
Critical_ROB_Stalls_Percent_7_Bucket_5: 1790
Non-critical_ROB_Stalls_Percent_7_Bucket_5: 1060
Critical_ROB_Stalls_Percent_7_Bucket_6: 10010
Non-critical_ROB_Stalls_Percent_7_Bucket_6: 8154
Critical_ROB_Stalls_Percent_8_Bucket_0: 1360452
Non-critical_ROB_Stalls_Percent_8_Bucket_0: 158349
Critical_ROB_Stalls_Percent_8_Bucket_1: 759948
Non-critical_ROB_Stalls_Percent_8_Bucket_1: 84004
Critical_ROB_Stalls_Percent_8_Bucket_2: 282094
Non-critical_ROB_Stalls_Percent_8_Bucket_2: 23357
Critical_ROB_Stalls_Percent_8_Bucket_3: 74694
Non-critical_ROB_Stalls_Percent_8_Bucket_3: 7408
Critical_ROB_Stalls_Percent_8_Bucket_4: 13810
Non-critical_ROB_Stalls_Percent_8_Bucket_4: 1658
Critical_ROB_Stalls_Percent_8_Bucket_5: 1939
Non-critical_ROB_Stalls_Percent_8_Bucket_5: 911
Critical_ROB_Stalls_Percent_8_Bucket_6: 15569
Non-critical_ROB_Stalls_Percent_8_Bucket_6: 2595
Average ROB occupancy Load Stall Begin: 47.9099
Average ROB occupancy Load Stall End: 58.2203
Min ROB occupancy Load Stall Begin: 1
Max ROB occupancy Load Stall Begin: 352
Min ROB occupancy Load Stall End: 1
Max ROB occupancy Load Stall End: 352
Average ROB occupancy Critical Load Stall Begin: -nan
Average ROB occupancy Critical Load Stall End: -nan
Min ROB occupancy Critical Load Stall Begin: 400
Max ROB occupancy Critical Load Stall Begin: 0
Min ROB occupancy Critical Load Stall End: 400
Max ROB occupancy Critical Load Stall End: 0
 ROB Load Stall Begin Bucket Count 0: 1831447
 ROB Load Stall End Bucket Count 0: 1518801
 ROB Critical Load Stall Begin Bucket Count 0: 0
 ROB Critical Load Stall End Bucket Count 0: 0
 ROB Load Stall Begin Bucket Count 1: 655515
 ROB Load Stall End Bucket Count 1: 843952
 ROB Critical Load Stall Begin Bucket Count 1: 0
 ROB Critical Load Stall End Bucket Count 1: 0
 ROB Load Stall Begin Bucket Count 2: 216337
 ROB Load Stall End Bucket Count 2: 305451
 ROB Critical Load Stall Begin Bucket Count 2: 0
 ROB Critical Load Stall End Bucket Count 2: 0
 ROB Load Stall Begin Bucket Count 3: 53891
 ROB Load Stall End Bucket Count 3: 82102
 ROB Critical Load Stall Begin Bucket Count 3: 0
 ROB Critical Load Stall End Bucket Count 3: 0
 ROB Load Stall Begin Bucket Count 4: 10221
 ROB Load Stall End Bucket Count 4: 15468
 ROB Critical Load Stall Begin Bucket Count 4: 0
 ROB Critical Load Stall End Bucket Count 4: 0
 ROB Load Stall Begin Bucket Count 5: 2794
 ROB Load Stall End Bucket Count 5: 2850
 ROB Critical Load Stall Begin Bucket Count 5: 0
 ROB Critical Load Stall End Bucket Count 5: 0
 ROB Load Stall Begin Bucket Count 6: 16583
 ROB Load Stall End Bucket Count 6: 18164
 ROB Critical Load Stall Begin Bucket Count 6: 0
 ROB Critical Load Stall End Bucket Count 6: 0
PIST Tag Read Accesses: 2447960
PIST Read Accesses: 1223980
PIST Tag Write Accesses: 2447960
PIST Write Accesses: 1223980
Criticality detector called times: 2772201
Max global_stall_cycles_count: 3383546
Threshold Modified: 0 times, factor: 0
Sturdy critical IP cache stats: 
 Unused entries: 0
CIC Tag Read Accesses: 0
CIC Read Accesses: 0
CIC Tag Write Accesses: 0
CIC Write Accesses: 0
Wobbly critical IP cache stats: 
 Unused entries: 115
CIC Tag Read Accesses: 143739972
CIC Read Accesses: 0
CIC Tag Write Accesses: 44
CIC Write Accesses: 0
ITLB TOTAL     ACCESS:   10548050  HIT:    9887675  MISS:     660375  HIT %:    93.7394  MISS %:    6.26064   MPKI: 13.2075
ITLB LOAD TRANSLATION ACCESS:    8279320  HIT:    8255865  MISS:      23455  HIT %:    99.7167  MISS %:   0.283296   MPKI: 0.4691
ITLB TRANSLATION FROM L1D PREFETCHER ACCESS:    2268730  HIT:    1631810  MISS:     636920  HIT %:    71.9261  MISS %:    28.0739   MPKI: 12.7384
ITLB PREFETCH  REQUESTED:          0  ISSUED:          0  USEFUL:     539187  USELESS:      97728
ITLB USEFUL LOAD PREFETCHES:     539187 PREFETCH ISSUED TO LOWER LEVEL:          0  ACCURACY: inf
ITLB TIMELY PREFETCHES:     539187 LATE PREFETCHES: 33 DROPPED PREFETCHES: 0
ITLB PREFETCHES SAME FILL-ORIGIN LEVEL: 0 DIFFERENT FILL-ORIGIN LEVEL: 0
ITLB AVERAGE MISS LATENCY: 1889.82 cycles
ITLB RQ	ACCESS:   16026565	FORWARD:          0	MERGED:    5440656	TO_CACHE:   10585909

DTLB TOTAL     ACCESS:    9469740  HIT:    9024418  MISS:     445322  HIT %:    95.2974  MISS %:    4.70258   MPKI: 8.90644
DTLB LOAD TRANSLATION ACCESS:    9469740  HIT:    9024418  MISS:     445322  HIT %:    95.2974  MISS %:    4.70258   MPKI: 8.90644
DTLB PREFETCH  REQUESTED:          0  ISSUED:          0  USEFUL:          0  USELESS:          0
DTLB USEFUL LOAD PREFETCHES:          0 PREFETCH ISSUED TO LOWER LEVEL:          0  ACCURACY: -nan
DTLB TIMELY PREFETCHES:          0 LATE PREFETCHES: 0 DROPPED PREFETCHES: 0
DTLB PREFETCHES SAME FILL-ORIGIN LEVEL: 0 DIFFERENT FILL-ORIGIN LEVEL: 0
DTLB AVERAGE MISS LATENCY: 9.45512 cycles
DTLB RQ	ACCESS:   13382993	FORWARD:          0	MERGED:    3892948	TO_CACHE:    9490045

STLB TOTAL     ACCESS:    1105697  HIT:    1101377  MISS:       4320  HIT %:    99.6093  MISS %:   0.390704   MPKI: 0.0864
STLB LOAD TRANSLATION ACCESS:     468744  HIT:     464516  MISS:       4228  HIT %:     99.098  MISS %:   0.901985   MPKI: 0.08456
STLB TRANSLATION FROM L1D PREFETCHER ACCESS:     636953  HIT:     636861  MISS:         92  HIT %:    99.9856  MISS %:  0.0144438   MPKI: 0.00184
STLB PREFETCH  REQUESTED:          0  ISSUED:          0  USEFUL:         18  USELESS:         71
STLB USEFUL LOAD PREFETCHES:         18 PREFETCH ISSUED TO LOWER LEVEL:          0  ACCURACY: inf
STLB TIMELY PREFETCHES:         18 LATE PREFETCHES: 0 DROPPED PREFETCHES: 0
STLB PREFETCHES SAME FILL-ORIGIN LEVEL: 0 DIFFERENT FILL-ORIGIN LEVEL: 0
STLB AVERAGE MISS LATENCY: 46.8289 cycles
STLB RQ	ACCESS:    1105697	FORWARD:          0	MERGED:          0	TO_CACHE:    1105697

STLB Hit, L1D data hit: 0
STLB Hit, L2C data hit: 0
STLB Hit, LLC data hit: 0
STLB Hit, LLC data miss: 0
STLB STLB hints to L2: 0
L1D TOTAL     ACCESS:   13238516  HIT:   12602475  MISS:     636041  HIT %:    95.1955  MISS %:    4.80447   MPKI: 12.7208
L1D LOAD      ACCESS:    6977264  HIT:    6437482  MISS:     539782  HIT %:    92.2637  MISS %:     7.7363   MPKI: 10.7956
L1D RFO       ACCESS:    6261252  HIT:    6164993  MISS:      96259  HIT %:    98.4626  MISS %:    1.53738   MPKI: 1.92518
L1D PREFETCH  REQUESTED:          0  ISSUED:          0  USEFUL:          0  USELESS:          0
L1D USEFUL LOAD PREFETCHES:          0 PREFETCH ISSUED TO LOWER LEVEL:          0  ACCURACY: -nan
L1D TIMELY PREFETCHES:          0 LATE PREFETCHES: 0 DROPPED PREFETCHES: 0
L1D PREFETCHES SAME FILL-ORIGIN LEVEL: 0 DIFFERENT FILL-ORIGIN LEVEL: 0
L1D AVERAGE MISS LATENCY: 28.8071 cycles
L1D RQ	ACCESS:   10504278	FORWARD:          0	MERGED:    3345201	TO_CACHE:    7003468
L1D WQ	ACCESS:    6510215	FORWARD:     155609	MERGED:     130690	TO_CACHE:    6379525

L1D UNIQUE REGIONS ACCESSED: 0
L1D REGIONS CONFLICTS: 0
L1D Cross Page Prefetch Requests: 0
L1D Same Page Prefetch Requests: 0
L1D ROI Sum of L1D PQ occupancy: 0
L1D PREFETCHES PUSHED FROM L2C: 0
L1I TOTAL     ACCESS:   15963222  HIT:   11491794  MISS:    4471428  HIT %:    71.9892  MISS %:    28.0108   MPKI: 89.4286
L1I LOAD      ACCESS:    9774824  HIT:    9741875  MISS:      32949  HIT %:    99.6629  MISS %:    0.33708   MPKI: 0.65898
L1I PREFETCH  ACCESS:    6188398  HIT:    1749919  MISS:    4438479  HIT %:    28.2774  MISS %:    71.7226   MPKI: 88.7696
L1I PREFETCH  REQUESTED:    6419906  ISSUED:    6390038  USEFUL:    3400777  USELESS:    1037675
L1I USEFUL LOAD PREFETCHES:    3400777 PREFETCH ISSUED TO LOWER LEVEL:    4450492  ACCURACY: 76.4135
L1I TIMELY PREFETCHES:    3400777 LATE PREFETCHES: 12007 DROPPED PREFETCHES: 0
L1I PREFETCHES SAME FILL-ORIGIN LEVEL: 4450492 DIFFERENT FILL-ORIGIN LEVEL: 0
L1I AVERAGE MISS LATENCY: 122901 cycles
L1I RQ	ACCESS:   14212898	FORWARD:          0	MERGED:    4434429	TO_CACHE:    9778469
L1I PQ	ACCESS:    6390038	FORWARD:          0	MERGED:     141942	TO_CACHE:    6248096

BTB TOTAL     ACCESS:    6392209  HIT:    5397836  MISS:     994373  HIT %:     84.444  MISS %:     15.556   MPKI: 19.8875
BTB BRANCH_DIRECT_JUMP	ACCESS:     774599  HIT:     695785  MISS:      78814
BTB BRANCH_INDIRECT	ACCESS:     108807  HIT:      74004  MISS:      34803
BTB BRANCH_CONDITIONAL	ACCESS:    2988960  HIT:    2775647  MISS:     213313
BTB BRANCH_DIRECT_CALL	ACCESS:    1048808  HIT:     930091  MISS:     118717
BTB BRANCH_INDIRECT_CALL	ACCESS:     211109  HIT:     142418  MISS:      68691
BTB BRANCH_RETURN	ACCESS:    1259926  HIT:     779891  MISS:     480035
BTB BRANCH_OTHER ACCESS:          0  HIT:          0  MISS:          0

L2C TOTAL     ACCESS:    5943722  HIT:    5723566  MISS:     220156  HIT %:     96.296  MISS %:    3.70401   MPKI: 4.40312
L2C LOAD      ACCESS:     560718  HIT:     407141  MISS:     153577  HIT %:    72.6107  MISS %:    27.3893   MPKI: 3.07154
L2C DATA LOAD MPKI: 3.04658
L2C INSTRUCTION LOAD MPKI: 0.02496
L2C RFO       ACCESS:      96254  HIT:      70697  MISS:      25557  HIT %:    73.4484  MISS %:    26.5516   MPKI: 0.51114
L2C PREFETCH  ACCESS:    5041984  HIT:    5010227  MISS:      31757  HIT %:    99.3701  MISS %:   0.629851   MPKI: 0.63514
L2C DATA PREFETCH MPKI: 0.02454
L2C INSTRUCTION PREFETCH MPKI: 0.6106
L2C WRITEBACK ACCESS:     239950  HIT:     233186  MISS:       6764  HIT %:    97.1811  MISS %:    2.81892   MPKI: 0.13528
L2C LOAD TRANSLATION ACCESS:       4685  HIT:       2293  MISS:       2392  HIT %:    48.9434  MISS %:    51.0566   MPKI: 0.04784
L2C TRANSLATION FROM L1D PREFETCHER ACCESS:        131  HIT:         22  MISS:        109  HIT %:    16.7939  MISS %:    83.2061   MPKI: 0.00218
L2C PREFETCH  REQUESTED:    2427857  ISSUED:    2427857  USEFUL:        579  USELESS:      31070
L2C USEFUL LOAD PREFETCHES:        579 PREFETCH ISSUED TO LOWER LEVEL:     347543  ACCURACY: 0.166598
L2C TIMELY PREFETCHES:        579 LATE PREFETCHES: 1 DROPPED PREFETCHES: 0
L2C PREFETCHES SAME FILL-ORIGIN LEVEL: 1266 DIFFERENT FILL-ORIGIN LEVEL: 315785
L2C AVERAGE MISS LATENCY: 45.3296 cycles
L2C RQ	ACCESS:     661799	FORWARD:          0	MERGED:          0	TO_CACHE:     661788
L2C WQ	ACCESS:     239950	FORWARD:         11	MERGED:          0	TO_CACHE:     239950
L2C PQ	ACCESS:    6878349	FORWARD:          0	MERGED:    1518186	TO_CACHE:    5360163

L2C Instructions Evicting Data 14993
L2C Translations Evicting Data 2304
L2C Data Evicting Data 163384
L2C Instructions Evicting Instructions 16602
L2C Translations Evicting Instructions 161
L2C Data Evicting Instructions 13516
L2C Instructions Evicting Translations 183
L2C Translations Evicting Translations 36
L2C Data Evicting Translations 2213
L2C Dense regions hint from L2: 0
PSCL5 TOTAL     ACCESS:       4320  HIT:       4320  MISS:          0  HIT %:        100  MISS %:          0   MPKI: 0
PSCL5 LOAD TRANSLATION ACCESS:       4228  HIT:       4228  MISS:          0  HIT %:        100  MISS %:          0   MPKI: 0
PSCL5 TRANSLATION FROM L1D PREFETCHER ACCESS:         92  HIT:         92  MISS:          0  HIT %:        100  MISS %:          0   MPKI: 0
PSCL5 PREFETCH  REQUESTED:          0  ISSUED:          0  USEFUL:          0  USELESS:          0
PSCL5 USEFUL LOAD PREFETCHES:          0 PREFETCH ISSUED TO LOWER LEVEL:          0  ACCURACY: -nan
PSCL5 TIMELY PREFETCHES:          0 LATE PREFETCHES: 0 DROPPED PREFETCHES: 0
PSCL5 PREFETCHES SAME FILL-ORIGIN LEVEL: 0 DIFFERENT FILL-ORIGIN LEVEL: 0

PSCL4 TOTAL     ACCESS:       4306  HIT:       4301  MISS:          5  HIT %:    99.8839  MISS %:   0.116117   MPKI: 0.0001
PSCL4 LOAD TRANSLATION ACCESS:       4214  HIT:       4209  MISS:          5  HIT %:    99.8813  MISS %:   0.118652   MPKI: 0.0001
PSCL4 TRANSLATION FROM L1D PREFETCHER ACCESS:         92  HIT:         92  MISS:          0  HIT %:        100  MISS %:          0   MPKI: 0
PSCL4 PREFETCH  REQUESTED:          0  ISSUED:          0  USEFUL:          0  USELESS:          0
PSCL4 USEFUL LOAD PREFETCHES:          0 PREFETCH ISSUED TO LOWER LEVEL:          0  ACCURACY: -nan
PSCL4 TIMELY PREFETCHES:          0 LATE PREFETCHES: 0 DROPPED PREFETCHES: 0
PSCL4 PREFETCHES SAME FILL-ORIGIN LEVEL: 0 DIFFERENT FILL-ORIGIN LEVEL: 0

PSCL3 TOTAL     ACCESS:       4313  HIT:       4308  MISS:          5  HIT %:    99.8841  MISS %:   0.115929   MPKI: 0.0001
PSCL3 LOAD TRANSLATION ACCESS:       4221  HIT:       4216  MISS:          5  HIT %:    99.8815  MISS %:   0.118455   MPKI: 0.0001
PSCL3 TRANSLATION FROM L1D PREFETCHER ACCESS:         92  HIT:         92  MISS:          0  HIT %:        100  MISS %:          0   MPKI: 0
PSCL3 PREFETCH  REQUESTED:          0  ISSUED:          0  USEFUL:          0  USELESS:          0
PSCL3 USEFUL LOAD PREFETCHES:          0 PREFETCH ISSUED TO LOWER LEVEL:          0  ACCURACY: -nan
PSCL3 TIMELY PREFETCHES:          0 LATE PREFETCHES: 0 DROPPED PREFETCHES: 0
PSCL3 PREFETCHES SAME FILL-ORIGIN LEVEL: 0 DIFFERENT FILL-ORIGIN LEVEL: 0

PSCL2 TOTAL     ACCESS:       4320  HIT:       3834  MISS:        486  HIT %:      88.75  MISS %:      11.25   MPKI: 0.00972
PSCL2 LOAD TRANSLATION ACCESS:       4267  HIT:       3781  MISS:        486  HIT %:    88.6103  MISS %:    11.3897   MPKI: 0.00972
PSCL2 TRANSLATION FROM L1D PREFETCHER ACCESS:         53  HIT:         53  MISS:          0  HIT %:        100  MISS %:          0   MPKI: 0
PSCL2 PREFETCH  REQUESTED:          0  ISSUED:          0  USEFUL:          0  USELESS:          0
PSCL2 USEFUL LOAD PREFETCHES:          0 PREFETCH ISSUED TO LOWER LEVEL:          0  ACCURACY: -nan
PSCL2 TIMELY PREFETCHES:          0 LATE PREFETCHES: 0 DROPPED PREFETCHES: 0
PSCL2 PREFETCHES SAME FILL-ORIGIN LEVEL: 0 DIFFERENT FILL-ORIGIN LEVEL: 0

LLC TOTAL     ACCESS:     623308  HIT:     596822  MISS:      26486  HIT %:    95.7507  MISS %:    4.24926   MPKI: 0.52972
LLC LOAD      ACCESS:     153576  HIT:     138492  MISS:      15084  HIT %:    90.1782  MISS %:    9.82185   MPKI: 0.30168
LLC RFO       ACCESS:      25557  HIT:      19838  MISS:       5719  HIT %:    77.6226  MISS %:    22.3774   MPKI: 0.11438
LLC PREFETCH  ACCESS:     347363  HIT:     342348  MISS:       5015  HIT %:    98.5563  MISS %:    1.44373   MPKI: 0.1003
LLC WRITEBACK ACCESS:      94311  HIT:      93784  MISS:        527  HIT %:    99.4412  MISS %:    0.55879   MPKI: 0.01054
LLC LOAD TRANSLATION ACCESS:       2392  HIT:       2255  MISS:        137  HIT %:    94.2726  MISS %:    5.72742   MPKI: 0.00274
LLC TRANSLATION FROM L1D PREFETCHER ACCESS:        109  HIT:        105  MISS:          4  HIT %:    96.3303  MISS %:    3.66972   MPKI: 8e-05
LLC PREFETCH  REQUESTED:          0  ISSUED:          0  USEFUL:        595  USELESS:       2508
LLC USEFUL LOAD PREFETCHES:        595 PREFETCH ISSUED TO LOWER LEVEL:       5043  ACCURACY: 11.7985
LLC TIMELY PREFETCHES:        595 LATE PREFETCHES: 28 DROPPED PREFETCHES: 0
LLC PREFETCHES SAME FILL-ORIGIN LEVEL: 4252 DIFFERENT FILL-ORIGIN LEVEL: 0
LLC AVERAGE MISS LATENCY: 162.312 cycles
LLC RQ	ACCESS:     181634	FORWARD:          0	MERGED:          0	TO_CACHE:     181634
LLC WQ	ACCESS:      94311	FORWARD:          0	MERGED:          0	TO_CACHE:      94311
LLC PQ	ACCESS:     347543	FORWARD:          0	MERGED:        102	TO_CACHE:     347441

LLC Dense regions hint to LLC: 0

RAW hits: 1552385
Loads Generated: 12056659
Loads sent to L1D: 10504278
Stores Generated: 6510203
Stores sent to L1D: 6510215
Major fault: 0 Minor fault: 2572
Allocated PAGES: 2572
I-Shadow cache 408 bytes
Touched + WorthPF tables 6144 bytes 
MMA filter 174 bytes 
FNL filter 272 bytes 
TOTAL PREFETCHER STORAGE SIZE: 25174 bytes
CPU 0 L1I next line prefetcher final stats
 All Calls: 9885672
 Critical Calls: 2940696
------------------
Depth Distribution
------------------
depth 0: 0
depth 1: 2524282
depth 2: 1448414
depth 3: 348327
depth 4: 18855
depth 5: 432
depth 6: 2
depth 7: 0
depth 8: 0
depth 9: 0
depth 10: 0
depth 11: 0
depth 12: 0
depth 13: 0
depth 14: 0
depth 15: 0
depth 16: 0
depth 17: 0
depth 18: 0
depth 19: 0
depth 20: 0
depth 21: 0
depth 22: 0
depth 23: 0
depth 24: 0
depth 25: 0
depth 26: 0
depth 27: 0
depth 28: 0
depth 29: 0
Total: 4340312
-----------------------------
-----------------------------
	Captured at Filter
-----------------------------
depth 0: 0
depth 1: 523230
depth 2: 321038
depth 3: 150526
depth 4: 25947
depth 5: 680
depth 6: 2
depth 7: 0
depth 8: 0
depth 9: 0
depth 10: 0
depth 11: 0
depth 12: 0
depth 13: 0
depth 14: 0
depth 15: 0
depth 16: 0
depth 17: 0
depth 18: 0
depth 19: 0
depth 20: 0
depth 21: 0
depth 22: 0
depth 23: 0
depth 24: 0
depth 25: 0
depth 26: 0
depth 27: 0
depth 28: 0
depth 29: 0
-----------------------------
-----------------------------
		Lost at Page
-----------------------------
depth 0: 0
depth 1: 58364
depth 2: 36775
depth 3: 7190
depth 4: 168
depth 5: 13
depth 6: 0
depth 7: 0
depth 8: 0
depth 9: 0
depth 10: 0
depth 11: 0
depth 12: 0
depth 13: 0
depth 14: 0
depth 15: 0
depth 16: 0
depth 17: 0
depth 18: 0
depth 19: 0
depth 20: 0
depth 21: 0
depth 22: 0
depth 23: 0
depth 24: 0
depth 25: 0
depth 26: 0
depth 27: 0
depth 28: 0
depth 29: 0
-----------------------------
-----------------------------
	Lost due to PQ Size
-----------------------------
33
-----------------------------
ST read accesses: 1618464
ST write accesses: 7316
PT read accesses: 25361344
PT write accesses: 2369842
FILTER read accesses: 4841962
FILTER write accesses: 362440
GHR read accesses: 394744
GHR write accesses: 59597
GHR counter read accesses: 21399268
GHR counter write accesses: 1768408
ST tag read accesses: 626272857
ST tag write accesses: 51262924

DRAM Statistics
 CHANNEL 0
 RQ ROW_BUFFER_HIT:       2467  ROW_BUFFER_MISS:      23492
 DBUS_CONGESTED:         21
 WQ ROW_BUFFER_HIT:       2451  ROW_BUFFER_MISS:      13352  FULL:          0

 AVG_CONGESTED_CYCLE: 3
 All warmup complete: 2
Channel 0 Bank busy for read cycles: 0
Channel 0 Bank busy for write cycles: 0
Channel 0
Rank 0
0banks busy for read cycles: 60815431
0banks busy for write cycles: 8504
1banks busy for read cycles: 2131174
1banks busy for write cycles: 1201536
2banks busy for read cycles: 448519
2banks busy for write cycles: 325007
3banks busy for read cycles: 156846
3banks busy for write cycles: 138635
4banks busy for read cycles: 23070
4banks busy for write cycles: 59791
5banks busy for read cycles: 7454
5banks busy for write cycles: 30773
6banks busy for read cycles: 1885
6banks busy for write cycles: 24840
7banks busy for read cycles: 856
7banks busy for write cycles: 11148
8banks busy for read cycles: 344
8banks busy for write cycles: 10460

CPU 0 Branch Prediction Accuracy: 99.9029% MPKI: 0.19006 Average ROB Occupancy at Mispredict: 58.3082
Branch types
NOT_BRANCH: 40217154 80.4343%
BRANCH_DIRECT_JUMP: 774599 1.5492%
BRANCH_INDIRECT: 108807 0.217614%
BRANCH_CONDITIONAL: 6379333 12.7587%
BRANCH_DIRECT_CALL: 1048808 2.09762%
BRANCH_INDIRECT_CALL: 211109 0.422218%
BRANCH_RETURN: 1259926 2.51985%
BRANCH_OTHER: 0 0%

DRAM PAGES: 1048576
Allocated PAGES: 2572
