Initialize SIGNATURE TABLE
ST_SET: 1
ST_WAY: 256
ST_TAG_BIT: 16
ST_TAG_MASK: ffff

Initialize PATTERN TABLE
PT_SET: 512
PT_WAY: 4
SIG_DELTA_BIT: 7
C_SIG_BIT: 4
C_DELTA_BIT: 4

Initialize PREFETCH FILTER
FILTER_SET: 1024

*** ChampSim Multicore Out-of-Order Simulator ***

Warmup Instructions: 50000000
Simulation Instructions: 50000000
Number of CPUs: 1
LLC sets: 2048
LLC ways: 16
Off-chip DRAM Size: 4096 MB Channels: 1 Width: 64-bit Data Rate: 6400 MT/s
CPU 0 runs ../IPC-traces//server_014.champsimtrace.xz
.xz
NUM_OF_IPS_IN_CRITICAL_IP_TRAINING: 64
NUM_OF_CRITICAL_IP_TRAINING_TABLE_WAYS: 2
NUM_OF_CRITICAL_IP_TRAINING_TABLE_SETS: 32
WOBBLY_CRITICAL_IP_CACHE_SETS: 32
WOBBLY_CRITICAL_IP_CACHE_WAYS: 4
BTB has LRU replacement policy
ITLB has LRU replacement policy
DTLB has LRU replacement policy
STLB has LRU replacement policy
CPU 0 L1I next line prefetcher
L1I has LRU replacement policy
L1D has LRU replacement policy
Initialize SRRIP state for L2C
Initialize DRRIP state for LLC
Heartbeat CPU 0 instructions: 10000003 cycles: 2819506 heartbeat IPC: 3.54672 cumulative IPC: 3.54672 (Simulation time: 0 hr 3 min 23 sec) 
Heartbeat CPU 0 instructions: 20000002 cycles: 5667863 heartbeat IPC: 3.5108 cumulative IPC: 3.52867 (Simulation time: 0 hr 6 min 1 sec) 
Heartbeat CPU 0 instructions: 30000003 cycles: 8493441 heartbeat IPC: 3.5391 cumulative IPC: 3.53214 (Simulation time: 0 hr 8 min 26 sec) 
Heartbeat CPU 0 instructions: 40000002 cycles: 11321007 heartbeat IPC: 3.53661 cumulative IPC: 3.53325 (Simulation time: 0 hr 10 min 26 sec) 
Heartbeat CPU 0 instructions: 50000002 cycles: 14148374 heartbeat IPC: 3.53686 cumulative IPC: 3.53398 (Simulation time: 0 hr 12 min 23 sec) 

Warmup complete CPU 0 instructions: 50000002 cycles: 14148374 (Simulation time: 0 hr 12 min 23 sec) 

Heartbeat CPU 0 instructions: 60000000 cycles: 27470672 heartbeat IPC: 0.750621 cumulative IPC: 0.750621 (Simulation time: 0 hr 14 min 43 sec) 
Heartbeat CPU 0 instructions: 70000000 cycles: 40767632 heartbeat IPC: 0.752052 cumulative IPC: 0.751336 (Simulation time: 0 hr 16 min 59 sec) 
*** Reached end of trace for Core: 0 Repeating trace: ../IPC-traces//server_014.champsimtrace.xz
Heartbeat CPU 0 instructions: 80000001 cycles: 54082358 heartbeat IPC: 0.751048 cumulative IPC: 0.75124 (Simulation time: 0 hr 19 min 16 sec) 
Heartbeat CPU 0 instructions: 90000003 cycles: 68494879 heartbeat IPC: 0.693841 cumulative IPC: 0.736018 (Simulation time: 0 hr 21 min 42 sec) 
Heartbeat CPU 0 instructions: 100000000 cycles: 81963775 heartbeat IPC: 0.742451 cumulative IPC: 0.737296 (Simulation time: 0 hr 23 min 43 sec) 
Finished CPU 0 instructions: 50000003 cycles: 67815411 cumulative IPC: 0.737296 (Simulation time: 0 hr 23 min 43 sec) 

ChampSim completed all CPUs

Region of Interest Statistics

CPU 0 cumulative IPC: 0.737296 instructions: 50000003 cycles: 67815411

CPU 0 Average Load ROB stall cycles: 1.76168e+07
CPU 0 Fraction of times ROB stalled by Loads: 36.9053
CPU 0 Percentage of Load stall cycles in Total stall cycles: 2.54818e+08
Issued all: 28696724
Issued LT all: 22637448
rob_not_full_when_issued_lt_all: 18436423
Issued LT one: 18059695
rob_not_full_when_issued_lt_one: 14204183
 Total stall cycles: 55827531
 Total load stall cycles: 142258632161857
CPU 0 NUM of IPS identified critical: 0
CPU 0 Num of Load IPs stalling ROB: 8964
Threshold modification factor: 0
Max PIST entries: 64
Min PIST entries: 0
Avg PIST entries: 32
Trouble in retire width: 0.813081
MaC = Marked as critical.
lt_50_percent_before_Mac: 0
gt_90_percent_before_Mac: 0
gt_75_percent_before_Mac: 0
gt_50_percent_before_Mac: 0
stall_proportion_bin_same_before_after: 0
stall_proportion_bin_lower_before_after: 0
stall_proportion_bin_upper_before_after: 0
average_stall_proportion_before: -nan
average_stall_proportion_after: -nan
Critical IP stalls, total frequency: 0
Non-critical IP stalls, total frequency: 2980157
Total Freq all stalling IPs: 2980157
stat_90_percent_critical_ip_stalls_freq: 2684673
stat_90_percent_non_critical_ip_stalls_freq: 295484
Critical_IP_ROB_Stalls_Bucket_0: 0
Non-critical_IP_ROB_Stalls_Bucket_0: 923077
Critical_IP_ROB_Stalls_Bucket_1: 0
Non-critical_IP_ROB_Stalls_Bucket_1: 973677
Critical_IP_ROB_Stalls_Bucket_2: 0
Non-critical_IP_ROB_Stalls_Bucket_2: 455481
Critical_IP_ROB_Stalls_Bucket_3: 0
Non-critical_IP_ROB_Stalls_Bucket_3: 155755
Critical_IP_ROB_Stalls_Bucket_4: 0
Non-critical_IP_ROB_Stalls_Bucket_4: 94360
Critical_IP_ROB_Stalls_Bucket_5: 0
Non-critical_IP_ROB_Stalls_Bucket_5: 88968
Critical_IP_ROB_Stalls_Bucket_6: 0
Non-critical_IP_ROB_Stalls_Bucket_6: 288839
0 => IPs accounting for >50 percent of stalls, 1 => 55, 2 => 60, 3 => 65 and so on till 90.
percent50: 50.1692 num IPs:  62
percent55: 55.0118 num IPs: 82
percent60: 60.0957 num IPs: 104
percent65: 65.168 num IPs: 126
percent70: 70.2174 num IPs: 148
percent75: 75.1302 num IPs: 170
percent80: 80.0327 num IPs: 193
percent85: 85.1641 num IPs: 220
percent90: 90.085 num IPs: 261
Critical_ROB_Stalls_Percent_0_Bucket_0: 312547
Non-critical_ROB_Stalls_Percent_0_Bucket_0: 610530
Critical_ROB_Stalls_Percent_0_Bucket_1: 376385
Non-critical_ROB_Stalls_Percent_0_Bucket_1: 597292
Critical_ROB_Stalls_Percent_0_Bucket_2: 220491
Non-critical_ROB_Stalls_Percent_0_Bucket_2: 234990
Critical_ROB_Stalls_Percent_0_Bucket_3: 125589
Non-critical_ROB_Stalls_Percent_0_Bucket_3: 30166
Critical_ROB_Stalls_Percent_0_Bucket_4: 90101
Non-critical_ROB_Stalls_Percent_0_Bucket_4: 4259
Critical_ROB_Stalls_Percent_0_Bucket_5: 87434
Non-critical_ROB_Stalls_Percent_0_Bucket_5: 1534
Critical_ROB_Stalls_Percent_0_Bucket_6: 282574
Non-critical_ROB_Stalls_Percent_0_Bucket_6: 6265
Critical_ROB_Stalls_Percent_1_Bucket_0: 344520
Non-critical_ROB_Stalls_Percent_1_Bucket_0: 578557
Critical_ROB_Stalls_Percent_1_Bucket_1: 453630
Non-critical_ROB_Stalls_Percent_1_Bucket_1: 520047
Critical_ROB_Stalls_Percent_1_Bucket_2: 246477
Non-critical_ROB_Stalls_Percent_1_Bucket_2: 209004
Critical_ROB_Stalls_Percent_1_Bucket_3: 134677
Non-critical_ROB_Stalls_Percent_1_Bucket_3: 21078
Critical_ROB_Stalls_Percent_1_Bucket_4: 90108
Non-critical_ROB_Stalls_Percent_1_Bucket_4: 4252
Critical_ROB_Stalls_Percent_1_Bucket_5: 87441
Non-critical_ROB_Stalls_Percent_1_Bucket_5: 1527
Critical_ROB_Stalls_Percent_1_Bucket_6: 282584
Non-critical_ROB_Stalls_Percent_1_Bucket_6: 6255
Critical_ROB_Stalls_Percent_2_Bucket_0: 367790
Non-critical_ROB_Stalls_Percent_2_Bucket_0: 555287
Critical_ROB_Stalls_Percent_2_Bucket_1: 508171
Non-critical_ROB_Stalls_Percent_2_Bucket_1: 465506
Critical_ROB_Stalls_Percent_2_Bucket_2: 313514
Non-critical_ROB_Stalls_Percent_2_Bucket_2: 141967
Critical_ROB_Stalls_Percent_2_Bucket_3: 139078
Non-critical_ROB_Stalls_Percent_2_Bucket_3: 16677
Critical_ROB_Stalls_Percent_2_Bucket_4: 91977
Non-critical_ROB_Stalls_Percent_2_Bucket_4: 2383
Critical_ROB_Stalls_Percent_2_Bucket_5: 87748
Non-critical_ROB_Stalls_Percent_2_Bucket_5: 1220
Critical_ROB_Stalls_Percent_2_Bucket_6: 282669
Non-critical_ROB_Stalls_Percent_2_Bucket_6: 6170
Critical_ROB_Stalls_Percent_3_Bucket_0: 396395
Non-critical_ROB_Stalls_Percent_3_Bucket_0: 526682
Critical_ROB_Stalls_Percent_3_Bucket_1: 585568
Non-critical_ROB_Stalls_Percent_3_Bucket_1: 388109
Critical_ROB_Stalls_Percent_3_Bucket_2: 352769
Non-critical_ROB_Stalls_Percent_3_Bucket_2: 102712
Critical_ROB_Stalls_Percent_3_Bucket_3: 144968
Non-critical_ROB_Stalls_Percent_3_Bucket_3: 10787
Critical_ROB_Stalls_Percent_3_Bucket_4: 91983
Non-critical_ROB_Stalls_Percent_3_Bucket_4: 2377
Critical_ROB_Stalls_Percent_3_Bucket_5: 87748
Non-critical_ROB_Stalls_Percent_3_Bucket_5: 1220
Critical_ROB_Stalls_Percent_3_Bucket_6: 282678
Non-critical_ROB_Stalls_Percent_3_Bucket_6: 6161
Critical_ROB_Stalls_Percent_4_Bucket_0: 438230
Non-critical_ROB_Stalls_Percent_4_Bucket_0: 484847
Critical_ROB_Stalls_Percent_4_Bucket_1: 663105
Non-critical_ROB_Stalls_Percent_4_Bucket_1: 310572
Critical_ROB_Stalls_Percent_4_Bucket_2: 382086
Non-critical_ROB_Stalls_Percent_4_Bucket_2: 73395
Critical_ROB_Stalls_Percent_4_Bucket_3: 146505
Non-critical_ROB_Stalls_Percent_4_Bucket_3: 9250
Critical_ROB_Stalls_Percent_4_Bucket_4: 92227
Non-critical_ROB_Stalls_Percent_4_Bucket_4: 2133
Critical_ROB_Stalls_Percent_4_Bucket_5: 87755
Non-critical_ROB_Stalls_Percent_4_Bucket_5: 1213
Critical_ROB_Stalls_Percent_4_Bucket_6: 282682
Non-critical_ROB_Stalls_Percent_4_Bucket_6: 6157
Critical_ROB_Stalls_Percent_5_Bucket_0: 490270
Non-critical_ROB_Stalls_Percent_5_Bucket_0: 432807
Critical_ROB_Stalls_Percent_5_Bucket_1: 741358
Non-critical_ROB_Stalls_Percent_5_Bucket_1: 232319
Critical_ROB_Stalls_Percent_5_Bucket_2: 397068
Non-critical_ROB_Stalls_Percent_5_Bucket_2: 58413
Critical_ROB_Stalls_Percent_5_Bucket_3: 147629
Non-critical_ROB_Stalls_Percent_5_Bucket_3: 8126
Critical_ROB_Stalls_Percent_5_Bucket_4: 92231
Non-critical_ROB_Stalls_Percent_5_Bucket_4: 2129
Critical_ROB_Stalls_Percent_5_Bucket_5: 87758
Non-critical_ROB_Stalls_Percent_5_Bucket_5: 1210
Critical_ROB_Stalls_Percent_5_Bucket_6: 282684
Non-critical_ROB_Stalls_Percent_5_Bucket_6: 6155
Critical_ROB_Stalls_Percent_6_Bucket_0: 554457
Non-critical_ROB_Stalls_Percent_6_Bucket_0: 368620
Critical_ROB_Stalls_Percent_6_Bucket_1: 811591
Non-critical_ROB_Stalls_Percent_6_Bucket_1: 162086
Critical_ROB_Stalls_Percent_6_Bucket_2: 407294
Non-critical_ROB_Stalls_Percent_6_Bucket_2: 48187
Critical_ROB_Stalls_Percent_6_Bucket_3: 148907
Non-critical_ROB_Stalls_Percent_6_Bucket_3: 6848
Critical_ROB_Stalls_Percent_6_Bucket_4: 92401
Non-critical_ROB_Stalls_Percent_6_Bucket_4: 1959
Critical_ROB_Stalls_Percent_6_Bucket_5: 87766
Non-critical_ROB_Stalls_Percent_6_Bucket_5: 1202
Critical_ROB_Stalls_Percent_6_Bucket_6: 282685
Non-critical_ROB_Stalls_Percent_6_Bucket_6: 6154
Critical_ROB_Stalls_Percent_7_Bucket_0: 651723
Non-critical_ROB_Stalls_Percent_7_Bucket_0: 271354
Critical_ROB_Stalls_Percent_7_Bucket_1: 859746
Non-critical_ROB_Stalls_Percent_7_Bucket_1: 113931
Critical_ROB_Stalls_Percent_7_Bucket_2: 414343
Non-critical_ROB_Stalls_Percent_7_Bucket_2: 41138
Critical_ROB_Stalls_Percent_7_Bucket_3: 149062
Non-critical_ROB_Stalls_Percent_7_Bucket_3: 6693
Critical_ROB_Stalls_Percent_7_Bucket_4: 92484
Non-critical_ROB_Stalls_Percent_7_Bucket_4: 1876
Critical_ROB_Stalls_Percent_7_Bucket_5: 87771
Non-critical_ROB_Stalls_Percent_7_Bucket_5: 1197
Critical_ROB_Stalls_Percent_7_Bucket_6: 282895
Non-critical_ROB_Stalls_Percent_7_Bucket_6: 5944
Critical_ROB_Stalls_Percent_8_Bucket_0: 758605
Non-critical_ROB_Stalls_Percent_8_Bucket_0: 164472
Critical_ROB_Stalls_Percent_8_Bucket_1: 883449
Non-critical_ROB_Stalls_Percent_8_Bucket_1: 90228
Critical_ROB_Stalls_Percent_8_Bucket_2: 428919
Non-critical_ROB_Stalls_Percent_8_Bucket_2: 26562
Critical_ROB_Stalls_Percent_8_Bucket_3: 150305
Non-critical_ROB_Stalls_Percent_8_Bucket_3: 5450
Critical_ROB_Stalls_Percent_8_Bucket_4: 92620
Non-critical_ROB_Stalls_Percent_8_Bucket_4: 1740
Critical_ROB_Stalls_Percent_8_Bucket_5: 87774
Non-critical_ROB_Stalls_Percent_8_Bucket_5: 1194
Critical_ROB_Stalls_Percent_8_Bucket_6: 283001
Non-critical_ROB_Stalls_Percent_8_Bucket_6: 5838
Average ROB occupancy Load Stall Begin: 101.179
Average ROB occupancy Load Stall End: 109.588
Min ROB occupancy Load Stall Begin: 1
Max ROB occupancy Load Stall Begin: 352
Min ROB occupancy Load Stall End: 1
Max ROB occupancy Load Stall End: 352
Average ROB occupancy Critical Load Stall Begin: -nan
Average ROB occupancy Critical Load Stall End: -nan
Min ROB occupancy Critical Load Stall Begin: 400
Max ROB occupancy Critical Load Stall Begin: 0
Min ROB occupancy Critical Load Stall End: 400
Max ROB occupancy Critical Load Stall End: 0
 ROB Load Stall Begin Bucket Count 0: 1223835
 ROB Load Stall End Bucket Count 0: 923077
 ROB Critical Load Stall Begin Bucket Count 0: 0
 ROB Critical Load Stall End Bucket Count 0: 0
 ROB Load Stall Begin Bucket Count 1: 802003
 ROB Load Stall End Bucket Count 1: 973677
 ROB Critical Load Stall Begin Bucket Count 1: 0
 ROB Critical Load Stall End Bucket Count 1: 0
 ROB Load Stall Begin Bucket Count 2: 356530
 ROB Load Stall End Bucket Count 2: 455481
 ROB Critical Load Stall Begin Bucket Count 2: 0
 ROB Critical Load Stall End Bucket Count 2: 0
 ROB Load Stall Begin Bucket Count 3: 136503
 ROB Load Stall End Bucket Count 3: 155755
 ROB Critical Load Stall Begin Bucket Count 3: 0
 ROB Critical Load Stall End Bucket Count 3: 0
 ROB Load Stall Begin Bucket Count 4: 89686
 ROB Load Stall End Bucket Count 4: 94360
 ROB Critical Load Stall Begin Bucket Count 4: 0
 ROB Critical Load Stall End Bucket Count 4: 0
 ROB Load Stall Begin Bucket Count 5: 90323
 ROB Load Stall End Bucket Count 5: 88968
 ROB Critical Load Stall Begin Bucket Count 5: 0
 ROB Critical Load Stall End Bucket Count 5: 0
 ROB Load Stall Begin Bucket Count 6: 281277
 ROB Load Stall End Bucket Count 6: 288839
 ROB Critical Load Stall Begin Bucket Count 6: 0
 ROB Critical Load Stall End Bucket Count 6: 0
PIST Tag Read Accesses: 4028400
PIST Read Accesses: 2014200
PIST Tag Write Accesses: 4028400
PIST Write Accesses: 2014200
Criticality detector called times: 2966504
Max global_stall_cycles_count: 6073615
Threshold Modified: 0 times, factor: 0
Sturdy critical IP cache stats: 
 Unused entries: 0
CIC Tag Read Accesses: 0
CIC Read Accesses: 0
CIC Tag Write Accesses: 0
CIC Write Accesses: 0
Wobbly critical IP cache stats: 
 Unused entries: 103
CIC Tag Read Accesses: 168287185
CIC Read Accesses: 0
CIC Tag Write Accesses: 42
CIC Write Accesses: 0
ITLB TOTAL     ACCESS:   10466902  HIT:   10068031  MISS:     398871  HIT %:    96.1892  MISS %:    3.81078   MPKI: 7.97742
ITLB LOAD TRANSLATION ACCESS:    8209655  HIT:    8172997  MISS:      36658  HIT %:    99.5535  MISS %:   0.446523   MPKI: 0.73316
ITLB TRANSLATION FROM L1D PREFETCHER ACCESS:    2257247  HIT:    1895034  MISS:     362213  HIT %:    83.9533  MISS %:    16.0467   MPKI: 7.24426
ITLB PREFETCH  REQUESTED:          0  ISSUED:          0  USEFUL:     320740  USELESS:      41471
ITLB USEFUL LOAD PREFETCHES:     320740 PREFETCH ISSUED TO LOWER LEVEL:          0  ACCURACY: inf
ITLB TIMELY PREFETCHES:     320740 LATE PREFETCHES: 386 DROPPED PREFETCHES: 26
ITLB PREFETCHES SAME FILL-ORIGIN LEVEL: 0 DIFFERENT FILL-ORIGIN LEVEL: 0
ITLB AVERAGE MISS LATENCY: 48311.6 cycles
ITLB RQ	ACCESS:   15349274	FORWARD:          0	MERGED:    4838923	TO_CACHE:   10510351

DTLB TOTAL     ACCESS:   10790323  HIT:   10600085  MISS:     190238  HIT %:     98.237  MISS %:    1.76304   MPKI: 3.80476
DTLB LOAD TRANSLATION ACCESS:   10790323  HIT:   10600085  MISS:     190238  HIT %:     98.237  MISS %:    1.76304   MPKI: 3.80476
DTLB PREFETCH  REQUESTED:          0  ISSUED:          0  USEFUL:          0  USELESS:          0
DTLB USEFUL LOAD PREFETCHES:          0 PREFETCH ISSUED TO LOWER LEVEL:          0  ACCURACY: -nan
DTLB TIMELY PREFETCHES:          0 LATE PREFETCHES: 0 DROPPED PREFETCHES: 0
DTLB PREFETCHES SAME FILL-ORIGIN LEVEL: 0 DIFFERENT FILL-ORIGIN LEVEL: 0
DTLB AVERAGE MISS LATENCY: 9.76403 cycles
DTLB RQ	ACCESS:   15649693	FORWARD:          0	MERGED:    4843921	TO_CACHE:   10805772

STLB TOTAL     ACCESS:     589109  HIT:     587861  MISS:       1248  HIT %:    99.7882  MISS %:   0.211845   MPKI: 0.02496
STLB LOAD TRANSLATION ACCESS:     226510  HIT:     225329  MISS:       1181  HIT %:    99.4786  MISS %:    0.52139   MPKI: 0.02362
STLB TRANSLATION FROM L1D PREFETCHER ACCESS:     362599  HIT:     362532  MISS:         67  HIT %:    99.9815  MISS %:  0.0184777   MPKI: 0.00134
STLB PREFETCH  REQUESTED:          0  ISSUED:          0  USEFUL:         56  USELESS:          3
STLB USEFUL LOAD PREFETCHES:         56 PREFETCH ISSUED TO LOWER LEVEL:          0  ACCURACY: inf
STLB TIMELY PREFETCHES:         56 LATE PREFETCHES: 0 DROPPED PREFETCHES: 26
STLB PREFETCHES SAME FILL-ORIGIN LEVEL: 0 DIFFERENT FILL-ORIGIN LEVEL: 0
STLB AVERAGE MISS LATENCY: 138.272 cycles
STLB RQ	ACCESS:     589135	FORWARD:          0	MERGED:          0	TO_CACHE:     589135

STLB Hit, L1D data hit: 0
STLB Hit, L2C data hit: 0
STLB Hit, LLC data hit: 0
STLB Hit, LLC data miss: 0
STLB STLB hints to L2: 0
L1D TOTAL     ACCESS:   15590454  HIT:   15528983  MISS:      61471  HIT %:    99.6057  MISS %:   0.394286   MPKI: 1.22942
L1D LOAD      ACCESS:    7130973  HIT:    7101748  MISS:      29225  HIT %:    99.5902  MISS %:   0.409832   MPKI: 0.5845
L1D RFO       ACCESS:    8459481  HIT:    8427235  MISS:      32246  HIT %:    99.6188  MISS %:   0.381182   MPKI: 0.64492
L1D PREFETCH  REQUESTED:          0  ISSUED:          0  USEFUL:          0  USELESS:          0
L1D USEFUL LOAD PREFETCHES:          0 PREFETCH ISSUED TO LOWER LEVEL:          0  ACCURACY: -nan
L1D TIMELY PREFETCHES:          0 LATE PREFETCHES: 0 DROPPED PREFETCHES: 0
L1D PREFETCHES SAME FILL-ORIGIN LEVEL: 0 DIFFERENT FILL-ORIGIN LEVEL: 0
L1D AVERAGE MISS LATENCY: 218.497 cycles
L1D RQ	ACCESS:   11276289	FORWARD:          0	MERGED:    3978320	TO_CACHE:    7136656
L1D WQ	ACCESS:    8638567	FORWARD:     161313	MERGED:     125530	TO_CACHE:    8513037

L1D UNIQUE REGIONS ACCESSED: 0
L1D REGIONS CONFLICTS: 0
L1D Cross Page Prefetch Requests: 0
L1D Same Page Prefetch Requests: 0
L1D ROI Sum of L1D PQ occupancy: 0
L1D PREFETCHES PUSHED FROM L2C: 0
L1I TOTAL     ACCESS:   15270381  HIT:   13150178  MISS:    2120203  HIT %:    86.1156  MISS %:    13.8844   MPKI: 42.4041
L1I LOAD      ACCESS:    9524220  HIT:    9480712  MISS:      43508  HIT %:    99.5432  MISS %:   0.456814   MPKI: 0.87016
L1I PREFETCH  ACCESS:    5746161  HIT:    3669466  MISS:    2076695  HIT %:    63.8594  MISS %:    36.1406   MPKI: 41.5339
L1I PREFETCH  REQUESTED:    6071943  ISSUED:    6071782  USEFUL:    1791724  USELESS:     284967
L1I USEFUL LOAD PREFETCHES:    1791724 PREFETCH ISSUED TO LOWER LEVEL:    2090664  ACCURACY: 85.7012
L1I TIMELY PREFETCHES:    1791724 LATE PREFETCHES: 13969 DROPPED PREFETCHES: 32
L1I PREFETCHES SAME FILL-ORIGIN LEVEL: 2090664 DIFFERENT FILL-ORIGIN LEVEL: 0
L1I AVERAGE MISS LATENCY: 300484 cycles
L1I RQ	ACCESS:   13758537	FORWARD:          0	MERGED:    4225928	TO_CACHE:    9532609
L1I PQ	ACCESS:    6071782	FORWARD:          0	MERGED:     255117	TO_CACHE:    5816665

BTB TOTAL     ACCESS:    5705846  HIT:    5254646  MISS:     451200  HIT %:    92.0923  MISS %:    7.90768   MPKI: 9.024
BTB BRANCH_DIRECT_JUMP	ACCESS:     449415  HIT:     448069  MISS:       1346
BTB BRANCH_INDIRECT	ACCESS:       2330  HIT:       2200  MISS:        130
BTB BRANCH_CONDITIONAL	ACCESS:    2664995  HIT:    2660208  MISS:       4787
BTB BRANCH_DIRECT_CALL	ACCESS:    1172178  HIT:    1168562  MISS:       3616
BTB BRANCH_INDIRECT_CALL	ACCESS:     122383  HIT:     109013  MISS:      13370
BTB BRANCH_RETURN	ACCESS:    1294545  HIT:     866594  MISS:     427951
BTB BRANCH_OTHER ACCESS:          0  HIT:          0  MISS:          0

L2C TOTAL     ACCESS:    2411465  HIT:    2340838  MISS:      70627  HIT %:    97.0712  MISS %:     2.9288   MPKI: 1.41254
L2C LOAD      ACCESS:      58764  HIT:      32147  MISS:      26617  HIT %:    54.7053  MISS %:    45.2947   MPKI: 0.53234
L2C DATA LOAD MPKI: 0.4478
L2C INSTRUCTION LOAD MPKI: 0.08454
L2C RFO       ACCESS:      32246  HIT:       1074  MISS:      31172  HIT %:    3.33065  MISS %:    96.6694   MPKI: 0.62344
L2C PREFETCH  ACCESS:    2281166  HIT:    2270368  MISS:      10798  HIT %:    99.5266  MISS %:   0.473354   MPKI: 0.21596
L2C DATA PREFETCH MPKI: 0.02888
L2C INSTRUCTION PREFETCH MPKI: 0.18708
L2C WRITEBACK ACCESS:      37837  HIT:      36505  MISS:       1332  HIT %:    96.4796  MISS %:    3.52036   MPKI: 0.02664
L2C LOAD TRANSLATION ACCESS:       1348  HIT:        687  MISS:        661  HIT %:    50.9644  MISS %:    49.0356   MPKI: 0.01322
L2C TRANSLATION FROM L1D PREFETCHER ACCESS:        104  HIT:         57  MISS:         47  HIT %:    54.8077  MISS %:    45.1923   MPKI: 0.00094
L2C PREFETCH  REQUESTED:     540131  ISSUED:     538822  USEFUL:       2048  USELESS:       8597
L2C USEFUL LOAD PREFETCHES:       2048 PREFETCH ISSUED TO LOWER LEVEL:     148376  ACCURACY: 1.38028
L2C TIMELY PREFETCHES:       2048 LATE PREFETCHES: 3362 DROPPED PREFETCHES: 0
L2C PREFETCHES SAME FILL-ORIGIN LEVEL: 4806 DIFFERENT FILL-ORIGIN LEVEL: 134216
L2C AVERAGE MISS LATENCY: 199.312 cycles
L2C RQ	ACCESS:      92462	FORWARD:          0	MERGED:          0	TO_CACHE:      92462
L2C WQ	ACCESS:      37837	FORWARD:          0	MERGED:          0	TO_CACHE:      37837
L2C PQ	ACCESS:    2629486	FORWARD:          0	MERGED:     206842	TO_CACHE:    2422644

L2C Instructions Evicting Data 11055
L2C Translations Evicting Data 566
L2C Data Evicting Data 43792
L2C Instructions Evicting Instructions 2367
L2C Translations Evicting Instructions 132
L2C Data Evicting Instructions 10701
L2C Instructions Evicting Translations 159
L2C Translations Evicting Translations 10
L2C Data Evicting Translations 513
L2C Dense regions hint from L2: 0
PSCL5 TOTAL     ACCESS:       1274  HIT:       1274  MISS:          0  HIT %:        100  MISS %:          0   MPKI: 0
PSCL5 LOAD TRANSLATION ACCESS:       1181  HIT:       1181  MISS:          0  HIT %:        100  MISS %:          0   MPKI: 0
PSCL5 TRANSLATION FROM L1D PREFETCHER ACCESS:         93  HIT:         93  MISS:          0  HIT %:        100  MISS %:          0   MPKI: 0
PSCL5 PREFETCH  REQUESTED:          0  ISSUED:          0  USEFUL:          0  USELESS:          0
PSCL5 USEFUL LOAD PREFETCHES:          0 PREFETCH ISSUED TO LOWER LEVEL:          0  ACCURACY: -nan
PSCL5 TIMELY PREFETCHES:          0 LATE PREFETCHES: 0 DROPPED PREFETCHES: 0
PSCL5 PREFETCHES SAME FILL-ORIGIN LEVEL: 0 DIFFERENT FILL-ORIGIN LEVEL: 0

PSCL4 TOTAL     ACCESS:       1019  HIT:       1009  MISS:         10  HIT %:    99.0186  MISS %:   0.981354   MPKI: 0.0002
PSCL4 LOAD TRANSLATION ACCESS:        937  HIT:        927  MISS:         10  HIT %:    98.9328  MISS %:    1.06724   MPKI: 0.0002
PSCL4 TRANSLATION FROM L1D PREFETCHER ACCESS:         82  HIT:         82  MISS:          0  HIT %:        100  MISS %:          0   MPKI: 0
PSCL4 PREFETCH  REQUESTED:          0  ISSUED:          0  USEFUL:          0  USELESS:          0
PSCL4 USEFUL LOAD PREFETCHES:          0 PREFETCH ISSUED TO LOWER LEVEL:          0  ACCURACY: -nan
PSCL4 TIMELY PREFETCHES:          0 LATE PREFETCHES: 0 DROPPED PREFETCHES: 0
PSCL4 PREFETCHES SAME FILL-ORIGIN LEVEL: 0 DIFFERENT FILL-ORIGIN LEVEL: 0

PSCL3 TOTAL     ACCESS:       1195  HIT:       1185  MISS:         10  HIT %:    99.1632  MISS %:    0.83682   MPKI: 0.0002
PSCL3 LOAD TRANSLATION ACCESS:       1113  HIT:       1103  MISS:         10  HIT %:    99.1015  MISS %:   0.898473   MPKI: 0.0002
PSCL3 TRANSLATION FROM L1D PREFETCHER ACCESS:         82  HIT:         82  MISS:          0  HIT %:        100  MISS %:          0   MPKI: 0
PSCL3 PREFETCH  REQUESTED:          0  ISSUED:          0  USEFUL:          0  USELESS:          0
PSCL3 USEFUL LOAD PREFETCHES:          0 PREFETCH ISSUED TO LOWER LEVEL:          0  ACCURACY: -nan
PSCL3 TIMELY PREFETCHES:          0 LATE PREFETCHES: 0 DROPPED PREFETCHES: 0
PSCL3 PREFETCHES SAME FILL-ORIGIN LEVEL: 0 DIFFERENT FILL-ORIGIN LEVEL: 0

PSCL2 TOTAL     ACCESS:       1271  HIT:       1120  MISS:        151  HIT %:    88.1196  MISS %:    11.8804   MPKI: 0.00302
PSCL2 LOAD TRANSLATION ACCESS:       1185  HIT:       1034  MISS:        151  HIT %:    87.2574  MISS %:    12.7426   MPKI: 0.00302
PSCL2 TRANSLATION FROM L1D PREFETCHER ACCESS:         86  HIT:         86  MISS:          0  HIT %:        100  MISS %:          0   MPKI: 0
PSCL2 PREFETCH  REQUESTED:          0  ISSUED:          0  USEFUL:          0  USELESS:          0
PSCL2 USEFUL LOAD PREFETCHES:          0 PREFETCH ISSUED TO LOWER LEVEL:          0  ACCURACY: -nan
PSCL2 TIMELY PREFETCHES:          0 LATE PREFETCHES: 0 DROPPED PREFETCHES: 0
PSCL2 PREFETCHES SAME FILL-ORIGIN LEVEL: 0 DIFFERENT FILL-ORIGIN LEVEL: 0

LLC TOTAL     ACCESS:     213823  HIT:     163554  MISS:      50269  HIT %:    76.4904  MISS %:    23.5096   MPKI: 1.00538
LLC LOAD      ACCESS:      23255  HIT:       9040  MISS:      14215  HIT %:    38.8734  MISS %:    61.1266   MPKI: 0.2843
LLC RFO       ACCESS:      31172  HIT:       8017  MISS:      23155  HIT %:    25.7186  MISS %:    74.2814   MPKI: 0.4631
LLC PREFETCH  ACCESS:     124058  HIT:     112302  MISS:      11756  HIT %:    90.5238  MISS %:    9.47621   MPKI: 0.23512
LLC WRITEBACK ACCESS:      34630  HIT:      33941  MISS:        689  HIT %:    98.0104  MISS %:     1.9896   MPKI: 0.01378
LLC LOAD TRANSLATION ACCESS:        661  HIT:        226  MISS:        435  HIT %:    34.1906  MISS %:    65.8094   MPKI: 0.0087
LLC TRANSLATION FROM L1D PREFETCHER ACCESS:         47  HIT:         28  MISS:         19  HIT %:    59.5745  MISS %:    40.4255   MPKI: 0.00038
LLC PREFETCH  REQUESTED:          0  ISSUED:          0  USEFUL:       3167  USELESS:       5390
LLC USEFUL LOAD PREFETCHES:       3167 PREFETCH ISSUED TO LOWER LEVEL:      14204  ACCURACY: 22.2965
LLC TIMELY PREFETCHES:       3167 LATE PREFETCHES: 2448 DROPPED PREFETCHES: 0
LLC PREFETCHES SAME FILL-ORIGIN LEVEL: 10592 DIFFERENT FILL-ORIGIN LEVEL: 0
LLC AVERAGE MISS LATENCY: 288.262 cycles
LLC RQ	ACCESS:      55135	FORWARD:          0	MERGED:          0	TO_CACHE:      55135
LLC WQ	ACCESS:      34630	FORWARD:          0	MERGED:          0	TO_CACHE:      34630
LLC PQ	ACCESS:     147177	FORWARD:          0	MERGED:       6230	TO_CACHE:     140947

LLC Dense regions hint to LLC: 0

RAW hits: 1536106
Loads Generated: 12812392
Loads sent to L1D: 11276289
Stores Generated: 8638565
Stores sent to L1D: 8638567
Major fault: 0 Minor fault: 2022
Allocated PAGES: 2022
I-Shadow cache 408 bytes
Touched + WorthPF tables 6144 bytes 
MMA filter 174 bytes 
FNL filter 272 bytes 
TOTAL PREFETCHER STORAGE SIZE: 25174 bytes
CPU 0 L1I next line prefetcher final stats
 All Calls: 4143393
 Critical Calls: 1567813
------------------
Depth Distribution
------------------
depth 0: 0
depth 1: 547569
depth 2: 238508
depth 3: 74450
depth 4: 24821
depth 5: 12208
depth 6: 9832
depth 7: 8714
depth 8: 7434
depth 9: 6086
depth 10: 4578
depth 11: 2932
depth 12: 1631
depth 13: 518
depth 14: 0
depth 15: 0
depth 16: 0
depth 17: 0
depth 18: 0
depth 19: 0
depth 20: 0
depth 21: 0
depth 22: 0
depth 23: 0
depth 24: 0
depth 25: 0
depth 26: 0
depth 27: 0
depth 28: 0
depth 29: 0
Total: 939281
-----------------------------
-----------------------------
	Captured at Filter
-----------------------------
depth 0: 0
depth 1: 1101581
depth 2: 747061
depth 3: 518244
depth 4: 265903
depth 5: 66333
depth 6: 10172
depth 7: 3788
depth 8: 1107
depth 9: 283
depth 10: 43
depth 11: 10
depth 12: 6
depth 13: 1
depth 14: 0
depth 15: 0
depth 16: 0
depth 17: 0
depth 18: 0
depth 19: 0
depth 20: 0
depth 21: 0
depth 22: 0
depth 23: 0
depth 24: 0
depth 25: 0
depth 26: 0
depth 27: 0
depth 28: 0
depth 29: 0
-----------------------------
-----------------------------
		Lost at Page
-----------------------------
depth 0: 0
depth 1: 82123
depth 2: 25860
depth 3: 5207
depth 4: 1395
depth 5: 963
depth 6: 1027
depth 7: 1147
depth 8: 1160
depth 9: 1113
depth 10: 940
depth 11: 647
depth 12: 431
depth 13: 177
depth 14: 0
depth 15: 0
depth 16: 0
depth 17: 0
depth 18: 0
depth 19: 0
depth 20: 0
depth 21: 0
depth 22: 0
depth 23: 0
depth 24: 0
depth 25: 0
depth 26: 0
depth 27: 0
depth 28: 0
depth 29: 0
-----------------------------
-----------------------------
	Lost due to PQ Size
-----------------------------
1309
-----------------------------
ST read accesses: 800220
ST write accesses: 835
PT read accesses: 15236498
PT write accesses: 1090624
FILTER read accesses: 3011273
FILTER write accesses: 104274
GHR read accesses: 482189
GHR write accesses: 70016
GHR counter read accesses: 13094386
GHR counter write accesses: 835136
ST tag read accesses: 269250551
ST tag write accesses: 12910517

DRAM Statistics
 CHANNEL 0
 RQ ROW_BUFFER_HIT:      20299  ROW_BUFFER_MISS:      29279
 DBUS_CONGESTED:          7
 WQ ROW_BUFFER_HIT:       6593  ROW_BUFFER_MISS:      22245  FULL:          0

 AVG_CONGESTED_CYCLE: 4
 All warmup complete: 2
Channel 0 Bank busy for read cycles: 0
Channel 0 Bank busy for write cycles: 0
Channel 0
Rank 0
0banks busy for read cycles: 64801943
0banks busy for write cycles: 2170
1banks busy for read cycles: 723405
1banks busy for write cycles: 292316
2banks busy for read cycles: 344296
2banks busy for write cycles: 190291
3banks busy for read cycles: 160697
3banks busy for write cycles: 113688
4banks busy for read cycles: 79666
4banks busy for write cycles: 73031
5banks busy for read cycles: 64598
5banks busy for write cycles: 55581
6banks busy for read cycles: 65565
6banks busy for write cycles: 52621
7banks busy for read cycles: 89372
7banks busy for write cycles: 86059
8banks busy for read cycles: 252335
8banks busy for write cycles: 367778

CPU 0 Branch Prediction Accuracy: 99.7719% MPKI: 0.38824 Average ROB Occupancy at Mispredict: 48.3046
Branch types
NOT_BRANCH: 41488827 82.9776%
BRANCH_DIRECT_JUMP: 449415 0.89883%
BRANCH_INDIRECT: 2330 0.00466%
BRANCH_CONDITIONAL: 5470003 10.94%
BRANCH_DIRECT_CALL: 1172178 2.34436%
BRANCH_INDIRECT_CALL: 122383 0.244766%
BRANCH_RETURN: 1294545 2.58909%
BRANCH_OTHER: 0 0%

DRAM PAGES: 1048576
Allocated PAGES: 2022
