
*** ChampSim Multicore Out-of-Order Simulator ***

Warmup Instructions: 50000000
Simulation Instructions: 50000000
Number of CPUs: 1
LLC sets: 2048
LLC ways: 16
Off-chip DRAM Size: 4096 MB Channels: 1 Width: 64-bit Data Rate: 6400 MT/s
CPU 0 runs ../IPC-traces//server_012.champsimtrace.xz
.xz
NUM_OF_IPS_IN_CRITICAL_IP_TRAINING: 64
NUM_OF_CRITICAL_IP_TRAINING_TABLE_WAYS: 2
NUM_OF_CRITICAL_IP_TRAINING_TABLE_SETS: 32
WOBBLY_CRITICAL_IP_CACHE_SETS: 32
WOBBLY_CRITICAL_IP_CACHE_WAYS: 4
BTB has LRU replacement policy
ITLB has LRU replacement policy
DTLB has LRU replacement policy
STLB has LRU replacement policy
CPU 0 L1I next line prefetcher
L1I has LRU replacement policy
IP Table Entries: 64
L1D has LRU replacement policy
IP_Table L2 entries: 64
Initialize SRRIP state for L2C
Initialize DRRIP state for LLC
Heartbeat CPU 0 instructions: 10000002 cycles: 2771701 heartbeat IPC: 3.60789 cumulative IPC: 3.60789 (Simulation time: 0 hr 3 min 15 sec) 
Heartbeat CPU 0 instructions: 20000002 cycles: 5539385 heartbeat IPC: 3.61313 cumulative IPC: 3.61051 (Simulation time: 0 hr 6 min 1 sec) 
Heartbeat CPU 0 instructions: 30000003 cycles: 8303734 heartbeat IPC: 3.61749 cumulative IPC: 3.61283 (Simulation time: 0 hr 8 min 25 sec) 
Heartbeat CPU 0 instructions: 40000000 cycles: 11070532 heartbeat IPC: 3.61429 cumulative IPC: 3.6132 (Simulation time: 0 hr 10 min 37 sec) 
Heartbeat CPU 0 instructions: 50000003 cycles: 13837165 heartbeat IPC: 3.6145 cumulative IPC: 3.61346 (Simulation time: 0 hr 12 min 51 sec) 

Warmup complete CPU 0 instructions: 50000003 cycles: 13837165 (Simulation time: 0 hr 12 min 51 sec) 

% increase in all ip prefetch 379.126
% increase in all ip prefetch 1.28506
Heartbeat CPU 0 instructions: 60000000 cycles: 27618235 heartbeat IPC: 0.725633 cumulative IPC: 0.725633 (Simulation time: 0 hr 15 min 9 sec) 
Heartbeat CPU 0 instructions: 70000000 cycles: 41356322 heartbeat IPC: 0.727903 cumulative IPC: 0.726766 (Simulation time: 0 hr 17 min 19 sec) 
Heartbeat CPU 0 instructions: 80000003 cycles: 55259972 heartbeat IPC: 0.719236 cumulative IPC: 0.724239 (Simulation time: 0 hr 19 min 29 sec) 
Heartbeat CPU 0 instructions: 90000000 cycles: 69351988 heartbeat IPC: 0.709621 cumulative IPC: 0.720528 (Simulation time: 0 hr 21 min 40 sec) 
Heartbeat CPU 0 instructions: 100000002 cycles: 83260705 heartbeat IPC: 0.718974 cumulative IPC: 0.720217 (Simulation time: 0 hr 23 min 46 sec) 
Finished CPU 0 instructions: 50000001 cycles: 69423542 cumulative IPC: 0.720217 (Simulation time: 0 hr 23 min 46 sec) 

ChampSim completed all CPUs

Region of Interest Statistics

CPU 0 cumulative IPC: 0.720217 instructions: 50000001 cycles: 69423542

CPU 0 Average Load ROB stall cycles: 5.22465e+06
CPU 0 Fraction of times ROB stalled by Loads: 10.7989
CPU 0 Percentage of Load stall cycles in Total stall cycles: 6.60881e+07
 Total stall cycles: 38191724
 Total load stall cycles: 25240191847042
CPU 0 NUM of IPS identified critical: 0
CPU 0 Num of Load IPs stalling ROB: 10388
Threshold modification factor: -1
Max PIST entries: 64
Min PIST entries: 0
Avg PIST entries: 32
Trouble in retire width: 0.779889
MaC = Marked as critical.
lt_50_percent_before_Mac: 0
gt_90_percent_before_Mac: 0
gt_75_percent_before_Mac: 0
gt_50_percent_before_Mac: 0
stall_proportion_bin_same_before_after: 0
stall_proportion_bin_lower_before_after: 0
stall_proportion_bin_upper_before_after: 0
average_stall_proportion_before: -nan
average_stall_proportion_after: -nan
Critical IP stalls, total frequency: 0
Non-critical IP stalls, total frequency: 496477
Critical_IP_ROB_Stalls_Bucket_0: 0
Non-critical_IP_ROB_Stalls_Bucket_0: 343909
Critical_IP_ROB_Stalls_Bucket_1: 0
Non-critical_IP_ROB_Stalls_Bucket_1: 100636
Critical_IP_ROB_Stalls_Bucket_2: 0
Non-critical_IP_ROB_Stalls_Bucket_2: 48836
Critical_IP_ROB_Stalls_Bucket_3: 0
Non-critical_IP_ROB_Stalls_Bucket_3: 11710
Critical_IP_ROB_Stalls_Bucket_4: 0
Non-critical_IP_ROB_Stalls_Bucket_4: 7100
Critical_IP_ROB_Stalls_Bucket_5: 0
Non-critical_IP_ROB_Stalls_Bucket_5: 3996
Critical_IP_ROB_Stalls_Bucket_6: 0
Non-critical_IP_ROB_Stalls_Bucket_6: 5504
0 => IPs accounting for >50 percent of stalls, 1 => 55, 2 => 60, 3 => 65 and so on till 90.
percent50: 50.0599 num IPs:196
percent55: 55.0144 num IPs:280
percent60: 60.0267 num IPs:396
percent65: 65.0211 num IPs:560
percent70: 70.0173 num IPs:784
percent75: 75.0041 num IPs:1074
percent80: 80.006 num IPs:1437
percent85: 85.0009 num IPs:1910
percent90: 90.0036 num IPs:2577
Critical_ROB_Stalls_Percent_0_Bucket_0: 164862
Non-critical_ROB_Stalls_Percent_0_Bucket_0: 179047
Critical_ROB_Stalls_Percent_0_Bucket_1: 44048
Non-critical_ROB_Stalls_Percent_0_Bucket_1: 56588
Critical_ROB_Stalls_Percent_0_Bucket_2: 30585
Non-critical_ROB_Stalls_Percent_0_Bucket_2: 18251
Critical_ROB_Stalls_Percent_0_Bucket_3: 3345
Non-critical_ROB_Stalls_Percent_0_Bucket_3: 8365
Critical_ROB_Stalls_Percent_0_Bucket_4: 2091
Non-critical_ROB_Stalls_Percent_0_Bucket_4: 5009
Critical_ROB_Stalls_Percent_0_Bucket_5: 1436
Non-critical_ROB_Stalls_Percent_0_Bucket_5: 2560
Critical_ROB_Stalls_Percent_0_Bucket_6: 2169
Non-critical_ROB_Stalls_Percent_0_Bucket_6: 3335
Critical_ROB_Stalls_Percent_1_Bucket_0: 178644
Non-critical_ROB_Stalls_Percent_1_Bucket_0: 165265
Critical_ROB_Stalls_Percent_1_Bucket_1: 51119
Non-critical_ROB_Stalls_Percent_1_Bucket_1: 49517
Critical_ROB_Stalls_Percent_1_Bucket_2: 32702
Non-critical_ROB_Stalls_Percent_1_Bucket_2: 16134
Critical_ROB_Stalls_Percent_1_Bucket_3: 4107
Non-critical_ROB_Stalls_Percent_1_Bucket_3: 7603
Critical_ROB_Stalls_Percent_1_Bucket_4: 2395
Non-critical_ROB_Stalls_Percent_1_Bucket_4: 4705
Critical_ROB_Stalls_Percent_1_Bucket_5: 1706
Non-critical_ROB_Stalls_Percent_1_Bucket_5: 2290
Critical_ROB_Stalls_Percent_1_Bucket_6: 2461
Non-critical_ROB_Stalls_Percent_1_Bucket_6: 3043
Critical_ROB_Stalls_Percent_2_Bucket_0: 194646
Non-critical_ROB_Stalls_Percent_2_Bucket_0: 149263
Critical_ROB_Stalls_Percent_2_Bucket_1: 56658
Non-critical_ROB_Stalls_Percent_2_Bucket_1: 43978
Critical_ROB_Stalls_Percent_2_Bucket_2: 34296
Non-critical_ROB_Stalls_Percent_2_Bucket_2: 14540
Critical_ROB_Stalls_Percent_2_Bucket_3: 4890
Non-critical_ROB_Stalls_Percent_2_Bucket_3: 6820
Critical_ROB_Stalls_Percent_2_Bucket_4: 3024
Non-critical_ROB_Stalls_Percent_2_Bucket_4: 4076
Critical_ROB_Stalls_Percent_2_Bucket_5: 1866
Non-critical_ROB_Stalls_Percent_2_Bucket_5: 2130
Critical_ROB_Stalls_Percent_2_Bucket_6: 2639
Non-critical_ROB_Stalls_Percent_2_Bucket_6: 2865
Critical_ROB_Stalls_Percent_3_Bucket_0: 210357
Non-critical_ROB_Stalls_Percent_3_Bucket_0: 133552
Critical_ROB_Stalls_Percent_3_Bucket_1: 61617
Non-critical_ROB_Stalls_Percent_3_Bucket_1: 39019
Critical_ROB_Stalls_Percent_3_Bucket_2: 35883
Non-critical_ROB_Stalls_Percent_3_Bucket_2: 12953
Critical_ROB_Stalls_Percent_3_Bucket_3: 5587
Non-critical_ROB_Stalls_Percent_3_Bucket_3: 6123
Critical_ROB_Stalls_Percent_3_Bucket_4: 3753
Non-critical_ROB_Stalls_Percent_3_Bucket_4: 3347
Critical_ROB_Stalls_Percent_3_Bucket_5: 2211
Non-critical_ROB_Stalls_Percent_3_Bucket_5: 1785
Critical_ROB_Stalls_Percent_3_Bucket_6: 3407
Non-critical_ROB_Stalls_Percent_3_Bucket_6: 2097
Critical_ROB_Stalls_Percent_4_Bucket_0: 226993
Non-critical_ROB_Stalls_Percent_4_Bucket_0: 116916
Critical_ROB_Stalls_Percent_4_Bucket_1: 66836
Non-critical_ROB_Stalls_Percent_4_Bucket_1: 33800
Critical_ROB_Stalls_Percent_4_Bucket_2: 37321
Non-critical_ROB_Stalls_Percent_4_Bucket_2: 11515
Critical_ROB_Stalls_Percent_4_Bucket_3: 6039
Non-critical_ROB_Stalls_Percent_4_Bucket_3: 5671
Critical_ROB_Stalls_Percent_4_Bucket_4: 4138
Non-critical_ROB_Stalls_Percent_4_Bucket_4: 2962
Critical_ROB_Stalls_Percent_4_Bucket_5: 2475
Non-critical_ROB_Stalls_Percent_4_Bucket_5: 1521
Critical_ROB_Stalls_Percent_4_Bucket_6: 3818
Non-critical_ROB_Stalls_Percent_4_Bucket_6: 1686
Critical_ROB_Stalls_Percent_5_Bucket_0: 245187
Non-critical_ROB_Stalls_Percent_5_Bucket_0: 98722
Critical_ROB_Stalls_Percent_5_Bucket_1: 71229
Non-critical_ROB_Stalls_Percent_5_Bucket_1: 29407
Critical_ROB_Stalls_Percent_5_Bucket_2: 38473
Non-critical_ROB_Stalls_Percent_5_Bucket_2: 10363
Critical_ROB_Stalls_Percent_5_Bucket_3: 6485
Non-critical_ROB_Stalls_Percent_5_Bucket_3: 5225
Critical_ROB_Stalls_Percent_5_Bucket_4: 4437
Non-critical_ROB_Stalls_Percent_5_Bucket_4: 2663
Critical_ROB_Stalls_Percent_5_Bucket_5: 2593
Non-critical_ROB_Stalls_Percent_5_Bucket_5: 1403
Critical_ROB_Stalls_Percent_5_Bucket_6: 3975
Non-critical_ROB_Stalls_Percent_5_Bucket_6: 1529
Critical_ROB_Stalls_Percent_6_Bucket_0: 263358
Non-critical_ROB_Stalls_Percent_6_Bucket_0: 80551
Critical_ROB_Stalls_Percent_6_Bucket_1: 74988
Non-critical_ROB_Stalls_Percent_6_Bucket_1: 25648
Critical_ROB_Stalls_Percent_6_Bucket_2: 39601
Non-critical_ROB_Stalls_Percent_6_Bucket_2: 9235
Critical_ROB_Stalls_Percent_6_Bucket_3: 7353
Non-critical_ROB_Stalls_Percent_6_Bucket_3: 4357
Critical_ROB_Stalls_Percent_6_Bucket_4: 4971
Non-critical_ROB_Stalls_Percent_6_Bucket_4: 2129
Critical_ROB_Stalls_Percent_6_Bucket_5: 2775
Non-critical_ROB_Stalls_Percent_6_Bucket_5: 1221
Critical_ROB_Stalls_Percent_6_Bucket_6: 4167
Non-critical_ROB_Stalls_Percent_6_Bucket_6: 1337
Critical_ROB_Stalls_Percent_7_Bucket_0: 280230
Non-critical_ROB_Stalls_Percent_7_Bucket_0: 63679
Critical_ROB_Stalls_Percent_7_Bucket_1: 79756
Non-critical_ROB_Stalls_Percent_7_Bucket_1: 20880
Critical_ROB_Stalls_Percent_7_Bucket_2: 41086
Non-critical_ROB_Stalls_Percent_7_Bucket_2: 7750
Critical_ROB_Stalls_Percent_7_Bucket_3: 8142
Non-critical_ROB_Stalls_Percent_7_Bucket_3: 3568
Critical_ROB_Stalls_Percent_7_Bucket_4: 5370
Non-critical_ROB_Stalls_Percent_7_Bucket_4: 1730
Critical_ROB_Stalls_Percent_7_Bucket_5: 3016
Non-critical_ROB_Stalls_Percent_7_Bucket_5: 980
Critical_ROB_Stalls_Percent_7_Bucket_6: 4412
Non-critical_ROB_Stalls_Percent_7_Bucket_6: 1092
Critical_ROB_Stalls_Percent_8_Bucket_0: 296083
Non-critical_ROB_Stalls_Percent_8_Bucket_0: 47826
Critical_ROB_Stalls_Percent_8_Bucket_1: 84713
Non-critical_ROB_Stalls_Percent_8_Bucket_1: 15923
Critical_ROB_Stalls_Percent_8_Bucket_2: 43130
Non-critical_ROB_Stalls_Percent_8_Bucket_2: 5706
Critical_ROB_Stalls_Percent_8_Bucket_3: 8995
Non-critical_ROB_Stalls_Percent_8_Bucket_3: 2715
Critical_ROB_Stalls_Percent_8_Bucket_4: 5767
Non-critical_ROB_Stalls_Percent_8_Bucket_4: 1333
Critical_ROB_Stalls_Percent_8_Bucket_5: 3294
Non-critical_ROB_Stalls_Percent_8_Bucket_5: 702
Critical_ROB_Stalls_Percent_8_Bucket_6: 4867
Non-critical_ROB_Stalls_Percent_8_Bucket_6: 637
Average ROB occupancy Load Stall Begin: 47.4632
Average ROB occupancy Load Stall End: 53.9771
Min ROB occupancy Load Stall Begin: 1
Max ROB occupancy Load Stall Begin: 351
Min ROB occupancy Load Stall End: 1
Max ROB occupancy Load Stall End: 352
Average ROB occupancy Critical Load Stall Begin: -nan
Average ROB occupancy Critical Load Stall End: -nan
Min ROB occupancy Critical Load Stall Begin: 400
Max ROB occupancy Critical Load Stall Begin: 0
Min ROB occupancy Critical Load Stall End: 400
Max ROB occupancy Critical Load Stall End: 0
 ROB Load Stall Begin Bucket Count 0: 370557
 ROB Load Stall End Bucket Count 0: 343909
 ROB Critical Load Stall Begin Bucket Count 0: 0
 ROB Critical Load Stall End Bucket Count 0: 0
 ROB Load Stall Begin Bucket Count 1: 85811
 ROB Load Stall End Bucket Count 1: 100636
 ROB Critical Load Stall Begin Bucket Count 1: 0
 ROB Critical Load Stall End Bucket Count 1: 0
 ROB Load Stall Begin Bucket Count 2: 43220
 ROB Load Stall End Bucket Count 2: 48836
 ROB Critical Load Stall Begin Bucket Count 2: 0
 ROB Critical Load Stall End Bucket Count 2: 0
 ROB Load Stall Begin Bucket Count 3: 8590
 ROB Load Stall End Bucket Count 3: 11710
 ROB Critical Load Stall Begin Bucket Count 3: 0
 ROB Critical Load Stall End Bucket Count 3: 0
 ROB Load Stall Begin Bucket Count 4: 5817
 ROB Load Stall End Bucket Count 4: 7100
 ROB Critical Load Stall Begin Bucket Count 4: 0
 ROB Critical Load Stall End Bucket Count 4: 0
 ROB Load Stall Begin Bucket Count 5: 3407
 ROB Load Stall End Bucket Count 5: 3996
 ROB Critical Load Stall Begin Bucket Count 5: 0
 ROB Critical Load Stall End Bucket Count 5: 0
 ROB Load Stall Begin Bucket Count 6: 4289
 ROB Load Stall End Bucket Count 6: 5504
 ROB Critical Load Stall Begin Bucket Count 6: 0
 ROB Critical Load Stall End Bucket Count 6: 0
PIST Tag Read Accesses: 294380
PIST Read Accesses: 147190
PIST Tag Write Accesses: 294380
PIST Write Accesses: 147190
Criticality detector called times: 257434
Max global_stall_cycles_count: 312023
Threshold Modified: 1 times, factor: -1
ITLB TOTAL     ACCESS:    8948017  HIT:    8699466  MISS:     248551  HIT %:    97.2223  MISS %:    2.77772   MPKI: 4.97102
ITLB LOAD TRANSLATION ACCESS:    7670353  HIT:    7597467  MISS:      72886  HIT %:    99.0498  MISS %:    0.95023   MPKI: 1.45772
ITLB TRANSLATION FROM L1D PREFETCHER ACCESS:    1277664  HIT:    1101999  MISS:     175665  HIT %:    86.2511  MISS %:    13.7489   MPKI: 3.5133
ITLB PREFETCH  REQUESTED:          0  ISSUED:          0  USEFUL:     143713  USELESS:      31956
ITLB USEFUL LOAD PREFETCHES:     143713 PREFETCH ISSUED TO LOWER LEVEL:          0  ACCURACY: inf
ITLB TIMELY PREFETCHES:     143713 LATE PREFETCHES: 1127 DROPPED PREFETCHES: 15335
ITLB PREFETCHES SAME FILL-ORIGIN LEVEL: 0 DIFFERENT FILL-ORIGIN LEVEL: 0
ITLB AVERAGE MISS LATENCY: 215207 cycles
ITLB RQ	ACCESS:   12605733	FORWARD:          0	MERGED:    3603986	TO_CACHE:    9001747

DTLB TOTAL     ACCESS:    9419128  HIT:    8780364  MISS:     638764  HIT %:    93.2184  MISS %:    6.78156   MPKI: 12.7753
DTLB LOAD TRANSLATION ACCESS:    9419128  HIT:    8780364  MISS:     638764  HIT %:    93.2184  MISS %:    6.78156   MPKI: 12.7753
DTLB PREFETCH  REQUESTED:          0  ISSUED:          0  USEFUL:          0  USELESS:          0
DTLB USEFUL LOAD PREFETCHES:          0 PREFETCH ISSUED TO LOWER LEVEL:          0  ACCURACY: -nan
DTLB TIMELY PREFETCHES:          0 LATE PREFETCHES: 0 DROPPED PREFETCHES: 0
DTLB PREFETCHES SAME FILL-ORIGIN LEVEL: 0 DIFFERENT FILL-ORIGIN LEVEL: 0
DTLB AVERAGE MISS LATENCY: 15.6958 cycles
DTLB RQ	ACCESS:   11928001	FORWARD:          0	MERGED:    2468154	TO_CACHE:    9459847

STLB TOTAL     ACCESS:     972215  HIT:     851785  MISS:     120430  HIT %:    87.6128  MISS %:    12.3872   MPKI: 2.4086
STLB LOAD TRANSLATION ACCESS:     710523  HIT:     618076  MISS:      92447  HIT %:    86.9889  MISS %:    13.0111   MPKI: 1.84894
STLB TRANSLATION FROM L1D PREFETCHER ACCESS:     261692  HIT:     233709  MISS:      27983  HIT %:    89.3069  MISS %:    10.6931   MPKI: 0.55966
STLB PREFETCH  REQUESTED:          0  ISSUED:          0  USEFUL:      16134  USELESS:      11837
STLB USEFUL LOAD PREFETCHES:      16134 PREFETCH ISSUED TO LOWER LEVEL:          0  ACCURACY: inf
STLB TIMELY PREFETCHES:      16134 LATE PREFETCHES: 3 DROPPED PREFETCHES: 15335
STLB PREFETCHES SAME FILL-ORIGIN LEVEL: 0 DIFFERENT FILL-ORIGIN LEVEL: 0
STLB AVERAGE MISS LATENCY: 50.5642 cycles
STLB RQ	ACCESS:    1011070	FORWARD:          0	MERGED:      23517	TO_CACHE:     987553

STLB Hit, L1D data hit: 0
STLB Hit, L2C data hit: 0
STLB Hit, LLC data hit: 0
STLB Hit, LLC data miss: 0
STLB STLB hints to L2: 0
L1D TOTAL     ACCESS:   11872948  HIT:   11197195  MISS:     675753  HIT %:    94.3085  MISS %:    5.69154   MPKI: 13.5151
L1D LOAD      ACCESS:    6792073  HIT:    6256221  MISS:     535852  HIT %:    92.1106  MISS %:    7.88937   MPKI: 10.717
L1D RFO       ACCESS:    4982686  HIT:    4892054  MISS:      90632  HIT %:    98.1811  MISS %:    1.81894   MPKI: 1.81264
L1D PREFETCH  ACCESS:      98189  HIT:      48920  MISS:      49269  HIT %:    49.8223  MISS %:    50.1777   MPKI: 0.98538
L1D PREFETCH  REQUESTED:     216968  ISSUED:     216918  USEFUL:      16217  USELESS:      33068
L1D USEFUL LOAD PREFETCHES:      16217 PREFETCH ISSUED TO LOWER LEVEL:      52629  ACCURACY: 30.8138
L1D TIMELY PREFETCHES:      16217 LATE PREFETCHES: 3296 DROPPED PREFETCHES: 0
L1D PREFETCHES SAME FILL-ORIGIN LEVEL: 52629 DIFFERENT FILL-ORIGIN LEVEL: 0
L1D AVERAGE MISS LATENCY: 233782 cycles
L1D RQ	ACCESS:   10438895	FORWARD:          0	MERGED:    3527300	TO_CACHE:    6823306
L1D WQ	ACCESS:    5225435	FORWARD:      88369	MERGED:     120740	TO_CACHE:    5104695
L1D PQ	ACCESS:     108499	FORWARD:          0	MERGED:          0	TO_CACHE:     108419

L1D UNIQUE REGIONS ACCESSED: 0
L1D REGIONS CONFLICTS: 0
L1D Cross Page Prefetch Requests: 0
L1D Same Page Prefetch Requests: 220711
L1D ROI Sum of L1D PQ occupancy: 1408299
L1D PREFETCHES PUSHED FROM L2C: 0
L1I TOTAL     ACCESS:   12410898  HIT:   10323370  MISS:    2087528  HIT %:    83.1799  MISS %:    16.8201   MPKI: 41.7506
L1I LOAD      ACCESS:    9413565  HIT:    9146715  MISS:     266850  HIT %:    97.1653  MISS %:    2.83474   MPKI: 5.337
L1I PREFETCH  ACCESS:    2997333  HIT:    1176655  MISS:    1820678  HIT %:    39.2567  MISS %:    60.7433   MPKI: 36.4136
L1I PREFETCH  REQUESTED:    3280331  ISSUED:    3270543  USEFUL:    1195832  USELESS:     624891
L1I USEFUL LOAD PREFETCHES:    1195832 PREFETCH ISSUED TO LOWER LEVEL:    1857124  ACCURACY: 64.3916
L1I TIMELY PREFETCHES:    1195832 LATE PREFETCHES: 36342 DROPPED PREFETCHES: 49472
L1I PREFETCHES SAME FILL-ORIGIN LEVEL: 1857124 DIFFERENT FILL-ORIGIN LEVEL: 0
L1I AVERAGE MISS LATENCY: 855021 cycles
L1I RQ	ACCESS:   13688189	FORWARD:          0	MERGED:    4242463	TO_CACHE:    9445726
L1I PQ	ACCESS:    3270543	FORWARD:          0	MERGED:     110536	TO_CACHE:    3160007

BTB TOTAL     ACCESS:    4512075  HIT:    3722870  MISS:     789205  HIT %:     82.509  MISS %:     17.491   MPKI: 15.7841
BTB BRANCH_DIRECT_JUMP	ACCESS:     469809  HIT:     407045  MISS:      62764
BTB BRANCH_INDIRECT	ACCESS:     153732  HIT:     119846  MISS:      33886
BTB BRANCH_CONDITIONAL	ACCESS:    2157421  HIT:    1900789  MISS:     256632
BTB BRANCH_DIRECT_CALL	ACCESS:     679877  HIT:     561787  MISS:     118090
BTB BRANCH_INDIRECT_CALL	ACCESS:     168745  HIT:     156218  MISS:      12527
BTB BRANCH_RETURN	ACCESS:     882491  HIT:     577185  MISS:     305306
BTB BRANCH_OTHER ACCESS:          0  HIT:          0  MISS:          0

L2C TOTAL     ACCESS:    4196267  HIT:    2597257  MISS:    1599010  HIT %:    61.8945  MISS %:    38.1055   MPKI: 31.9802
L2C LOAD      ACCESS:     763047  HIT:     402126  MISS:     360921  HIT %:       52.7  MISS %:       47.3   MPKI: 7.21842
L2C DATA LOAD MPKI: 5.37764
L2C INSTRUCTION LOAD MPKI: 1.84078
L2C RFO       ACCESS:      90600  HIT:      42203  MISS:      48397  HIT %:    46.5817  MISS %:    53.4183   MPKI: 0.96794
L2C PREFETCH  ACCESS:    2904974  HIT:    1812459  MISS:    1092515  HIT %:    62.3916  MISS %:    37.6084   MPKI: 21.8503
L2C DATA PREFETCH MPKI: 8.71666
L2C INSTRUCTION PREFETCH MPKI: 13.1336
L2C WRITEBACK ACCESS:     256824  HIT:     233001  MISS:      23823  HIT %:     90.724  MISS %:      9.276   MPKI: 0.47646
L2C LOAD TRANSLATION ACCESS:     122063  HIT:      61648  MISS:      60415  HIT %:    50.5051  MISS %:    49.4949   MPKI: 1.2083
L2C TRANSLATION FROM L1D PREFETCHER ACCESS:      58759  HIT:      45820  MISS:      12939  HIT %:    77.9795  MISS %:    22.0205   MPKI: 0.25878
L2C PREFETCH  REQUESTED:    2195563  ISSUED:    2195130  USEFUL:      99274  USELESS:    1006607
L2C USEFUL LOAD PREFETCHES:      99274 PREFETCH ISSUED TO LOWER LEVEL:    1105474  ACCURACY: 8.98022
L2C TIMELY PREFETCHES:      99274 LATE PREFETCHES: 12957 DROPPED PREFETCHES: 0
L2C PREFETCHES SAME FILL-ORIGIN LEVEL: 449410 DIFFERENT FILL-ORIGIN LEVEL: 0
L2C AVERAGE MISS LATENCY: 38.1837 cycles
L2C RQ	ACCESS:    1034491	FORWARD:          0	MERGED:          0	TO_CACHE:    1034469
L2C WQ	ACCESS:     256824	FORWARD:         24	MERGED:          0	TO_CACHE:     256824
L2C PQ	ACCESS:    4104743	FORWARD:          0	MERGED:    1129940	TO_CACHE:    2974801

L2C Instructions Evicting Data 362503
L2C Translations Evicting Data 35237
L2C Data Evicting Data 367829
L2C Instructions Evicting Instructions 351222
L2C Translations Evicting Instructions 35199
L2C Data Evicting Instructions 350821
L2C Instructions Evicting Translations 34996
L2C Translations Evicting Translations 2918
L2C Data Evicting Translations 34462
L2C Dense regions hint from L2: 0
PSCL5 TOTAL     ACCESS:     135765  HIT:     135765  MISS:          0  HIT %:        100  MISS %:          0   MPKI: 0
PSCL5 LOAD TRANSLATION ACCESS:      92444  HIT:      92444  MISS:          0  HIT %:        100  MISS %:          0   MPKI: 0
PSCL5 TRANSLATION FROM L1D PREFETCHER ACCESS:      43321  HIT:      43321  MISS:          0  HIT %:        100  MISS %:          0   MPKI: 0
PSCL5 PREFETCH  REQUESTED:          0  ISSUED:          0  USEFUL:          0  USELESS:          0
PSCL5 USEFUL LOAD PREFETCHES:          0 PREFETCH ISSUED TO LOWER LEVEL:          0  ACCURACY: -nan
PSCL5 TIMELY PREFETCHES:          0 LATE PREFETCHES: 0 DROPPED PREFETCHES: 0
PSCL5 PREFETCHES SAME FILL-ORIGIN LEVEL: 0 DIFFERENT FILL-ORIGIN LEVEL: 0

PSCL4 TOTAL     ACCESS:     124501  HIT:     124151  MISS:        350  HIT %:    99.7189  MISS %:   0.281122   MPKI: 0.007
PSCL4 LOAD TRANSLATION ACCESS:      85908  HIT:      85558  MISS:        350  HIT %:    99.5926  MISS %:   0.407413   MPKI: 0.007
PSCL4 TRANSLATION FROM L1D PREFETCHER ACCESS:      38593  HIT:      38593  MISS:          0  HIT %:        100  MISS %:          0   MPKI: 0
PSCL4 PREFETCH  REQUESTED:          0  ISSUED:          0  USEFUL:          0  USELESS:          0
PSCL4 USEFUL LOAD PREFETCHES:          0 PREFETCH ISSUED TO LOWER LEVEL:          0  ACCURACY: -nan
PSCL4 TIMELY PREFETCHES:          0 LATE PREFETCHES: 0 DROPPED PREFETCHES: 0
PSCL4 PREFETCHES SAME FILL-ORIGIN LEVEL: 0 DIFFERENT FILL-ORIGIN LEVEL: 0

PSCL3 TOTAL     ACCESS:     133333  HIT:     132337  MISS:        996  HIT %:     99.253  MISS %:   0.747002   MPKI: 0.01992
PSCL3 LOAD TRANSLATION ACCESS:      92005  HIT:      91009  MISS:        996  HIT %:    98.9175  MISS %:    1.08255   MPKI: 0.01992
PSCL3 TRANSLATION FROM L1D PREFETCHER ACCESS:      41328  HIT:      41328  MISS:          0  HIT %:        100  MISS %:          0   MPKI: 0
PSCL3 PREFETCH  REQUESTED:          0  ISSUED:          0  USEFUL:          0  USELESS:          0
PSCL3 USEFUL LOAD PREFETCHES:          0 PREFETCH ISSUED TO LOWER LEVEL:          0  ACCURACY: -nan
PSCL3 TIMELY PREFETCHES:          0 LATE PREFETCHES: 0 DROPPED PREFETCHES: 0
PSCL3 PREFETCHES SAME FILL-ORIGIN LEVEL: 0 DIFFERENT FILL-ORIGIN LEVEL: 0

PSCL2 TOTAL     ACCESS:     125381  HIT:      93283  MISS:      32098  HIT %:    74.3996  MISS %:    25.6004   MPKI: 0.64196
PSCL2 LOAD TRANSLATION ACCESS:      96021  HIT:      63923  MISS:      32098  HIT %:    66.5719  MISS %:    33.4281   MPKI: 0.64196
PSCL2 TRANSLATION FROM L1D PREFETCHER ACCESS:      29360  HIT:      29360  MISS:          0  HIT %:        100  MISS %:          0   MPKI: 0
PSCL2 PREFETCH  REQUESTED:          0  ISSUED:          0  USEFUL:          0  USELESS:          0
PSCL2 USEFUL LOAD PREFETCHES:          0 PREFETCH ISSUED TO LOWER LEVEL:          0  ACCURACY: -nan
PSCL2 TIMELY PREFETCHES:          0 LATE PREFETCHES: 0 DROPPED PREFETCHES: 0
PSCL2 PREFETCHES SAME FILL-ORIGIN LEVEL: 0 DIFFERENT FILL-ORIGIN LEVEL: 0

LLC TOTAL     ACCESS:    1722126  HIT:    1629919  MISS:      92207  HIT %:    94.6457  MISS %:    5.35425   MPKI: 1.84414
LLC LOAD      ACCESS:     348175  HIT:     326245  MISS:      21930  HIT %:    93.7014  MISS %:    6.29856   MPKI: 0.4386
LLC RFO       ACCESS:      48179  HIT:      36606  MISS:      11573  HIT %:    75.9792  MISS %:    24.0208   MPKI: 0.23146
LLC PREFETCH  ACCESS:    1105472  HIT:    1049890  MISS:      55582  HIT %:    94.9721  MISS %:     5.0279   MPKI: 1.11164
LLC WRITEBACK ACCESS:     146946  HIT:     145612  MISS:       1334  HIT %:    99.0922  MISS %:   0.907816   MPKI: 0.02668
LLC LOAD TRANSLATION ACCESS:      60415  HIT:      58677  MISS:       1738  HIT %:    97.1232  MISS %:    2.87677   MPKI: 0.03476
LLC TRANSLATION FROM L1D PREFETCHER ACCESS:      12939  HIT:      12889  MISS:         50  HIT %:    99.6136  MISS %:   0.386429   MPKI: 0.001
LLC PREFETCH  REQUESTED:          0  ISSUED:          0  USEFUL:       3656  USELESS:      52145
LLC USEFUL LOAD PREFETCHES:       3656 PREFETCH ISSUED TO LOWER LEVEL:      55582  ACCURACY: 6.57767
LLC TIMELY PREFETCHES:       3656 LATE PREFETCHES: 0 DROPPED PREFETCHES: 0
LLC PREFETCHES SAME FILL-ORIGIN LEVEL: 0 DIFFERENT FILL-ORIGIN LEVEL: 0
LLC AVERAGE MISS LATENCY: 157.06 cycles
LLC RQ	ACCESS:     469715	FORWARD:          0	MERGED:          0	TO_CACHE:     469708
LLC WQ	ACCESS:     146946	FORWARD:          8	MERGED:          0	TO_CACHE:     146946
LLC PQ	ACCESS:    1105474	FORWARD:          0	MERGED:          0	TO_CACHE:    1105473

LLC Dense regions hint to LLC: 0

RAW hits: 995738
Loads Generated: 11434634
Loads sent to L1D: 10438895
Stores Generated: 5225429
Stores sent to L1D: 5225435
Major fault: 0 Minor fault: 5918
Allocated PAGES: 5918
I-Shadow cache 408 bytes
Touched + WorthPF tables 6144 bytes 
MMA filter 174 bytes 
FNL filter 272 bytes 
TOTAL PREFETCHER STORAGE SIZE: 25174 bytes
CPU 0 L1I next line prefetcher final stats

stream: 
stream:times selected: 283778
stream:pref_filled: 57489
stream:pref_useful: 14980
stream:pref_late: 2914
stream:misses: 3330
stream:misses_by_poll: 0

CS: 
CS:times selected: 34494
CS:pref_filled: 17598
CS:pref_useful: 14910
CS:pref_late: 3577
CS:misses: 7806
CS:misses_by_poll: 0

CPLX: 
CPLX:times selected: 247041
CPLX:pref_filled: 20336
CPLX:pref_useful: 3107
CPLX:pref_late: 755
CPLX:misses: 24710
CPLX:misses_by_poll: 0

NL_L1: 
NL:times selected: 1550
NL:pref_filled: 650
NL:pref_useful: 79
NL:pref_late: 19
NL:misses: 237
NL:misses_by_poll: 0

total selections: 566863
total_filled: 49269
total_useful: 16217
total_late: 7978
total_polluted: 0
total_misses_after_warmup: 567087
conflicts: 2947204
Degree Incremented Times: 77832
Degree Decremented Times: 184529

L1 IP Table Write Accesses: 3634025
L1 IP Table Read Accesses: 686821
L1 RST Write Accesses: 141802
L1 RST Read Accesses: 283604
L1 CSPT Write Accesses: 141802
L1 CSPT Read Accesses: 268718
L1 RR Filter Tag Write Accesses: 108549
L1 RR Filter Tag Read Accesses: 6409098
L1 IP Table Tag Write Accesses: 6823308
L1 IP Table Tag Read Accesses: 6823308
L1 RST Tag Write Accesses: 0
L1 RST Tag Read Accesses: 1295858
L1 RR Filter Write Accesses: 0
L1 RR Filter Read Accesses: 222329
test: 80621
L2 IP Table Read Accesses: 2396648
L2 IP Table Write Accesses: 4509060
L2 IP Table Tag Read Accesses: 2302478
L2 IP Table Tag Write Accesses: 2302478

DRAM Statistics
 CHANNEL 0
 RQ ROW_BUFFER_HIT:      13781  ROW_BUFFER_MISS:      77091
 DBUS_CONGESTED:        101
 WQ ROW_BUFFER_HIT:       8988  ROW_BUFFER_MISS:      48973  FULL:          0

 AVG_CONGESTED_CYCLE: 4
 All warmup complete: 2
Channel 0 Bank busy for read cycles: 0
Channel 0 Bank busy for write cycles: 0
Channel 0
Rank 0
0banks busy for read cycles: 55846982
0banks busy for write cycles: 24589
1banks busy for read cycles: 5725022
1banks busy for write cycles: 2999810
2banks busy for read cycles: 1806434
2banks busy for write cycles: 1094111
3banks busy for read cycles: 485330
3banks busy for write cycles: 408405
4banks busy for read cycles: 165794
4banks busy for write cycles: 202308
5banks busy for read cycles: 69309
5banks busy for write cycles: 133264
6banks busy for read cycles: 31941
6banks busy for write cycles: 102112
7banks busy for read cycles: 22339
7banks busy for write cycles: 113831
8banks busy for read cycles: 13316
8banks busy for write cycles: 178646

CPU 0 Branch Prediction Accuracy: 99.4607% MPKI: 1.00288 Average ROB Occupancy at Mispredict: 58.8768
Branch types
NOT_BRANCH: 40700967 81.4019%
BRANCH_DIRECT_JUMP: 469809 0.939618%
BRANCH_INDIRECT: 153732 0.307464%
BRANCH_CONDITIONAL: 6944059 13.8881%
BRANCH_DIRECT_CALL: 679877 1.35975%
BRANCH_INDIRECT_CALL: 168745 0.33749%
BRANCH_RETURN: 882491 1.76498%
BRANCH_OTHER: 0 0%

DRAM PAGES: 1048576
Allocated PAGES: 5918
