
*** ChampSim Multicore Out-of-Order Simulator ***

Warmup Instructions: 50000000
Simulation Instructions: 50000000
Number of CPUs: 1
LLC sets: 2048
LLC ways: 16
Off-chip DRAM Size: 4096 MB Channels: 1 Width: 64-bit Data Rate: 6400 MT/s
CPU 0 runs ../IPC-traces//server_014.champsimtrace.xz
.xz
NUM_OF_IPS_IN_CRITICAL_IP_TRAINING: 64
NUM_OF_CRITICAL_IP_TRAINING_TABLE_WAYS: 2
NUM_OF_CRITICAL_IP_TRAINING_TABLE_SETS: 32
WOBBLY_CRITICAL_IP_CACHE_SETS: 32
WOBBLY_CRITICAL_IP_CACHE_WAYS: 4
BTB has LRU replacement policy
ITLB has LRU replacement policy
DTLB has LRU replacement policy
STLB has LRU replacement policy
CPU 0 L1I next line prefetcher
L1I has LRU replacement policy
IP Table Entries: 64
L1D has LRU replacement policy
Initialize SRRIP state for L2C
Initialize DRRIP state for LLC
Heartbeat CPU 0 instructions: 10000003 cycles: 2819518 heartbeat IPC: 3.54671 cumulative IPC: 3.54671 (Simulation time: 0 hr 1 min 56 sec) 
Heartbeat CPU 0 instructions: 20000002 cycles: 5667909 heartbeat IPC: 3.51075 cumulative IPC: 3.52864 (Simulation time: 0 hr 3 min 51 sec) 
Heartbeat CPU 0 instructions: 30000003 cycles: 8493569 heartbeat IPC: 3.539 cumulative IPC: 3.53208 (Simulation time: 0 hr 5 min 46 sec) 
Heartbeat CPU 0 instructions: 40000002 cycles: 11321150 heartbeat IPC: 3.53659 cumulative IPC: 3.53321 (Simulation time: 0 hr 7 min 45 sec) 
Heartbeat CPU 0 instructions: 50000002 cycles: 14148535 heartbeat IPC: 3.53684 cumulative IPC: 3.53393 (Simulation time: 0 hr 9 min 38 sec) 

Warmup complete CPU 0 instructions: 50000002 cycles: 14148535 (Simulation time: 0 hr 9 min 38 sec) 

% increase in all ip prefetch 338.783
% increase in all ip prefetch -0.0423495
Heartbeat CPU 0 instructions: 60000000 cycles: 27482605 heartbeat IPC: 0.749958 cumulative IPC: 0.749958 (Simulation time: 0 hr 12 min 3 sec) 
Heartbeat CPU 0 instructions: 70000000 cycles: 40786148 heartbeat IPC: 0.751679 cumulative IPC: 0.750818 (Simulation time: 0 hr 14 min 18 sec) 
*** Reached end of trace for Core: 0 Repeating trace: ../IPC-traces//server_014.champsimtrace.xz
Heartbeat CPU 0 instructions: 80000001 cycles: 54116119 heartbeat IPC: 0.750189 cumulative IPC: 0.750608 (Simulation time: 0 hr 16 min 39 sec) 
Heartbeat CPU 0 instructions: 90000003 cycles: 68479726 heartbeat IPC: 0.696204 cumulative IPC: 0.736225 (Simulation time: 0 hr 19 min 7 sec) 
Heartbeat CPU 0 instructions: 100000000 cycles: 81922212 heartbeat IPC: 0.74391 cumulative IPC: 0.73775 (Simulation time: 0 hr 21 min 22 sec) 
Finished CPU 0 instructions: 50000003 cycles: 67773687 cumulative IPC: 0.73775 (Simulation time: 0 hr 21 min 22 sec) 

ChampSim completed all CPUs

Region of Interest Statistics

CPU 0 cumulative IPC: 0.73775 instructions: 50000003 cycles: 67773687

CPU 0 Average Load ROB stall cycles: 1.76093e+07
CPU 0 Fraction of times ROB stalled by Loads: 36.8981
CPU 0 Percentage of Load stall cycles in Total stall cycles: 2.55083e+08
Issued all: 28692299
Issued LT all: 22633023
rob_not_full_when_issued_lt_all: 18461229
Issued LT one: 18047098
rob_not_full_when_issued_lt_one: 14222046
 Total stall cycles: 55793496
 Total load stall cycles: 142319665579829
Unique Load IPs: 15597
CPU 0 NUM of IPS identified critical: 26
CPU 0 Num of Load IPs stalling ROB: 9004
Threshold modification factor: -1
Max PIST entries: 64
Min PIST entries: 0
Avg PIST entries: 32
Trouble in retire width: 0.812688
MaC = Marked as critical.
lt_50_percent_before_Mac: 16
gt_90_percent_before_Mac: 1
gt_75_percent_before_Mac: 2
gt_50_percent_before_Mac: 7
stall_proportion_bin_same_before_after: 0
stall_proportion_bin_lower_before_after: 0
stall_proportion_bin_upper_before_after: 0
average_stall_proportion_before: 0.0551795
average_stall_proportion_after: 0.0592287
Critical IP stalls, total frequency: 23857
Non-critical IP stalls, total frequency: 2958267
Total Freq all stalling IPs: 2982124
Critical_IP_Detector_Accuracy_70: 0.0384615
Critical_IP_Detector_Accuracy_80: 0.0384615
Critical_IP_Detector_Accuracy_90: 0.0769231
Critical_IP_Detector_Coverage_70: 0.00680272
Critical_IP_Detector_Coverage_80: 0.00518135
Critical_IP_Detector_Coverage_90: 0.00769231
stat_90_percent_critical_ip_stalls_freq: 2685605
stat_90_percent_non_critical_ip_stalls_freq: 296519
AVERAGE_ROB_Occupancy_90_Percent_Critical_IP_Stalls: 115.03
AVERAGE_ROB_Occupancy_90_Percent_Non_Critical_IP_Stalls: 58.5906
Critical_IP_ROB_Stalls_Bucket_0: 2502
Non-critical_IP_ROB_Stalls_Bucket_0: 926225
Critical_IP_ROB_Stalls_Bucket_1: 14132
Non-critical_IP_ROB_Stalls_Bucket_1: 956535
Critical_IP_ROB_Stalls_Bucket_2: 2501
Non-critical_IP_ROB_Stalls_Bucket_2: 454209
Critical_IP_ROB_Stalls_Bucket_3: 623
Non-critical_IP_ROB_Stalls_Bucket_3: 154085
Critical_IP_ROB_Stalls_Bucket_4: 383
Non-critical_IP_ROB_Stalls_Bucket_4: 93879
Critical_IP_ROB_Stalls_Bucket_5: 295
Non-critical_IP_ROB_Stalls_Bucket_5: 88658
Critical_IP_ROB_Stalls_Bucket_6: 3421
Non-critical_IP_ROB_Stalls_Bucket_6: 284676
0 => IPs accounting for >50 percent of stalls, 1 => 55, 2 => 60, 3 => 65 and so on till 90.
percent50: 50.2623 num IPs:  62
percent55: 55.1034 num IPs: 82
percent60: 60.1843 num IPs: 104
percent65: 65.0229 num IPs: 125
percent70: 70.0725 num IPs: 147
percent75: 75.2135 num IPs: 170
percent80: 80.1017 num IPs: 193
percent85: 85.0648 num IPs: 219
percent90: 90.0567 num IPs: 260
Critical_ROB_Stalls_Percent_0_Bucket_0: 313382
Non-critical_ROB_Stalls_Percent_0_Bucket_0: 615345
Critical_ROB_Stalls_Percent_0_Bucket_1: 371173
Non-critical_ROB_Stalls_Percent_0_Bucket_1: 599494
Critical_ROB_Stalls_Percent_0_Bucket_2: 228810
Non-critical_ROB_Stalls_Percent_0_Bucket_2: 227900
Critical_ROB_Stalls_Percent_0_Bucket_3: 125709
Non-critical_ROB_Stalls_Percent_0_Bucket_3: 28999
Critical_ROB_Stalls_Percent_0_Bucket_4: 89964
Non-critical_ROB_Stalls_Percent_0_Bucket_4: 4298
Critical_ROB_Stalls_Percent_0_Bucket_5: 87366
Non-critical_ROB_Stalls_Percent_0_Bucket_5: 1587
Critical_ROB_Stalls_Percent_0_Bucket_6: 282480
Non-critical_ROB_Stalls_Percent_0_Bucket_6: 5617
Critical_ROB_Stalls_Percent_1_Bucket_0: 352163
Non-critical_ROB_Stalls_Percent_1_Bucket_0: 576564
Critical_ROB_Stalls_Percent_1_Bucket_1: 446874
Non-critical_ROB_Stalls_Percent_1_Bucket_1: 523793
Critical_ROB_Stalls_Percent_1_Bucket_2: 249185
Non-critical_ROB_Stalls_Percent_1_Bucket_2: 207525
Critical_ROB_Stalls_Percent_1_Bucket_3: 134919
Non-critical_ROB_Stalls_Percent_1_Bucket_3: 19789
Critical_ROB_Stalls_Percent_1_Bucket_4: 90053
Non-critical_ROB_Stalls_Percent_1_Bucket_4: 4209
Critical_ROB_Stalls_Percent_1_Bucket_5: 87387
Non-critical_ROB_Stalls_Percent_1_Bucket_5: 1566
Critical_ROB_Stalls_Percent_1_Bucket_6: 282672
Non-critical_ROB_Stalls_Percent_1_Bucket_6: 5425
Critical_ROB_Stalls_Percent_2_Bucket_0: 369746
Non-critical_ROB_Stalls_Percent_2_Bucket_0: 558981
Critical_ROB_Stalls_Percent_2_Bucket_1: 506888
Non-critical_ROB_Stalls_Percent_2_Bucket_1: 463779
Critical_ROB_Stalls_Percent_2_Bucket_2: 315543
Non-critical_ROB_Stalls_Percent_2_Bucket_2: 141167
Critical_ROB_Stalls_Percent_2_Bucket_3: 140139
Non-critical_ROB_Stalls_Percent_2_Bucket_3: 14569
Critical_ROB_Stalls_Percent_2_Bucket_4: 91947
Non-critical_ROB_Stalls_Percent_2_Bucket_4: 2315
Critical_ROB_Stalls_Percent_2_Bucket_5: 87762
Non-critical_ROB_Stalls_Percent_2_Bucket_5: 1191
Critical_ROB_Stalls_Percent_2_Bucket_6: 282745
Non-critical_ROB_Stalls_Percent_2_Bucket_6: 5352
Critical_ROB_Stalls_Percent_3_Bucket_0: 398470
Non-critical_ROB_Stalls_Percent_3_Bucket_0: 530257
Critical_ROB_Stalls_Percent_3_Bucket_1: 589809
Non-critical_ROB_Stalls_Percent_3_Bucket_1: 380858
Critical_ROB_Stalls_Percent_3_Bucket_2: 346590
Non-critical_ROB_Stalls_Percent_3_Bucket_2: 110120
Critical_ROB_Stalls_Percent_3_Bucket_3: 141724
Non-critical_ROB_Stalls_Percent_3_Bucket_3: 12984
Critical_ROB_Stalls_Percent_3_Bucket_4: 91954
Non-critical_ROB_Stalls_Percent_3_Bucket_4: 2308
Critical_ROB_Stalls_Percent_3_Bucket_5: 87763
Non-critical_ROB_Stalls_Percent_3_Bucket_5: 1190
Critical_ROB_Stalls_Percent_3_Bucket_6: 282754
Non-critical_ROB_Stalls_Percent_3_Bucket_6: 5343
Critical_ROB_Stalls_Percent_4_Bucket_0: 438683
Non-critical_ROB_Stalls_Percent_4_Bucket_0: 490044
Critical_ROB_Stalls_Percent_4_Bucket_1: 657496
Non-critical_ROB_Stalls_Percent_4_Bucket_1: 313171
Critical_ROB_Stalls_Percent_4_Bucket_2: 385411
Non-critical_ROB_Stalls_Percent_4_Bucket_2: 71299
Critical_ROB_Stalls_Percent_4_Bucket_3: 145331
Non-critical_ROB_Stalls_Percent_4_Bucket_3: 9377
Critical_ROB_Stalls_Percent_4_Bucket_4: 92201
Non-critical_ROB_Stalls_Percent_4_Bucket_4: 2061
Critical_ROB_Stalls_Percent_4_Bucket_5: 87769
Non-critical_ROB_Stalls_Percent_4_Bucket_5: 1184
Critical_ROB_Stalls_Percent_4_Bucket_6: 282758
Non-critical_ROB_Stalls_Percent_4_Bucket_6: 5339
Critical_ROB_Stalls_Percent_5_Bucket_0: 497789
Non-critical_ROB_Stalls_Percent_5_Bucket_0: 430938
Critical_ROB_Stalls_Percent_5_Bucket_1: 736257
Non-critical_ROB_Stalls_Percent_5_Bucket_1: 234410
Critical_ROB_Stalls_Percent_5_Bucket_2: 399471
Non-critical_ROB_Stalls_Percent_5_Bucket_2: 57239
Critical_ROB_Stalls_Percent_5_Bucket_3: 146707
Non-critical_ROB_Stalls_Percent_5_Bucket_3: 8001
Critical_ROB_Stalls_Percent_5_Bucket_4: 92206
Non-critical_ROB_Stalls_Percent_5_Bucket_4: 2056
Critical_ROB_Stalls_Percent_5_Bucket_5: 87771
Non-critical_ROB_Stalls_Percent_5_Bucket_5: 1182
Critical_ROB_Stalls_Percent_5_Bucket_6: 282760
Non-critical_ROB_Stalls_Percent_5_Bucket_6: 5337
Critical_ROB_Stalls_Percent_6_Bucket_0: 554138
Non-critical_ROB_Stalls_Percent_6_Bucket_0: 374589
Critical_ROB_Stalls_Percent_6_Bucket_1: 813955
Non-critical_ROB_Stalls_Percent_6_Bucket_1: 156712
Critical_ROB_Stalls_Percent_6_Bucket_2: 409745
Non-critical_ROB_Stalls_Percent_6_Bucket_2: 46965
Critical_ROB_Stalls_Percent_6_Bucket_3: 147939
Non-critical_ROB_Stalls_Percent_6_Bucket_3: 6769
Critical_ROB_Stalls_Percent_6_Bucket_4: 92417
Non-critical_ROB_Stalls_Percent_6_Bucket_4: 1845
Critical_ROB_Stalls_Percent_6_Bucket_5: 87778
Non-critical_ROB_Stalls_Percent_6_Bucket_5: 1175
Critical_ROB_Stalls_Percent_6_Bucket_6: 282761
Non-critical_ROB_Stalls_Percent_6_Bucket_6: 5336
Critical_ROB_Stalls_Percent_7_Bucket_0: 653078
Non-critical_ROB_Stalls_Percent_7_Bucket_0: 275649
Critical_ROB_Stalls_Percent_7_Bucket_1: 855470
Non-critical_ROB_Stalls_Percent_7_Bucket_1: 115197
Critical_ROB_Stalls_Percent_7_Bucket_2: 416883
Non-critical_ROB_Stalls_Percent_7_Bucket_2: 39827
Critical_ROB_Stalls_Percent_7_Bucket_3: 148099
Non-critical_ROB_Stalls_Percent_7_Bucket_3: 6609
Critical_ROB_Stalls_Percent_7_Bucket_4: 92494
Non-critical_ROB_Stalls_Percent_7_Bucket_4: 1768
Critical_ROB_Stalls_Percent_7_Bucket_5: 87783
Non-critical_ROB_Stalls_Percent_7_Bucket_5: 1170
Critical_ROB_Stalls_Percent_7_Bucket_6: 282933
Non-critical_ROB_Stalls_Percent_7_Bucket_6: 5164
Critical_ROB_Stalls_Percent_8_Bucket_0: 764413
Non-critical_ROB_Stalls_Percent_8_Bucket_0: 164314
Critical_ROB_Stalls_Percent_8_Bucket_1: 878630
Non-critical_ROB_Stalls_Percent_8_Bucket_1: 92037
Critical_ROB_Stalls_Percent_8_Bucket_2: 429845
Non-critical_ROB_Stalls_Percent_8_Bucket_2: 26865
Critical_ROB_Stalls_Percent_8_Bucket_3: 149334
Non-critical_ROB_Stalls_Percent_8_Bucket_3: 5374
Critical_ROB_Stalls_Percent_8_Bucket_4: 92596
Non-critical_ROB_Stalls_Percent_8_Bucket_4: 1666
Critical_ROB_Stalls_Percent_8_Bucket_5: 87786
Non-critical_ROB_Stalls_Percent_8_Bucket_5: 1167
Critical_ROB_Stalls_Percent_8_Bucket_6: 283001
Non-critical_ROB_Stalls_Percent_8_Bucket_6: 5096
Average ROB occupancy Load Stall Begin: 101.052
Average ROB occupancy Load Stall End: 109.418
Min ROB occupancy Load Stall Begin: 1
Max ROB occupancy Load Stall Begin: 352
Min ROB occupancy Load Stall End: 1
Max ROB occupancy Load Stall End: 352
Average ROB occupancy Critical Load Stall Begin: 124.717
Average ROB occupancy Critical Load Stall End: 132.529
Min ROB occupancy Critical Load Stall Begin: 2
Max ROB occupancy Critical Load Stall Begin: 352
Min ROB occupancy Critical Load Stall End: 2
Max ROB occupancy Critical Load Stall End: 352
 ROB Load Stall Begin Bucket Count 0: 1230986
 ROB Load Stall End Bucket Count 0: 928727
 ROB Critical Load Stall Begin Bucket Count 0: 2439
 ROB Critical Load Stall End Bucket Count 0: 1358
 ROB Load Stall Begin Bucket Count 1: 795903
 ROB Load Stall End Bucket Count 1: 970667
 ROB Critical Load Stall Begin Bucket Count 1: 6984
 ROB Critical Load Stall End Bucket Count 1: 7587
 ROB Load Stall Begin Bucket Count 2: 358772
 ROB Load Stall End Bucket Count 2: 456710
 ROB Critical Load Stall Begin Bucket Count 2: 1084
 ROB Critical Load Stall End Bucket Count 2: 1464
 ROB Load Stall Begin Bucket Count 3: 136035
 ROB Load Stall End Bucket Count 3: 154708
 ROB Critical Load Stall Begin Bucket Count 3: 348
 ROB Critical Load Stall End Bucket Count 3: 392
 ROB Load Stall Begin Bucket Count 4: 89564
 ROB Load Stall End Bucket Count 4: 94262
 ROB Critical Load Stall Begin Bucket Count 4: 231
 ROB Critical Load Stall End Bucket Count 4: 231
 ROB Load Stall Begin Bucket Count 5: 90328
 ROB Load Stall End Bucket Count 5: 88953
 ROB Critical Load Stall Begin Bucket Count 5: 194
 ROB Critical Load Stall End Bucket Count 5: 180
 ROB Load Stall Begin Bucket Count 6: 280536
 ROB Load Stall End Bucket Count 6: 288097
 ROB Critical Load Stall Begin Bucket Count 6: 2015
 ROB Critical Load Stall End Bucket Count 6: 2083
PIST Tag Read Accesses: 4545304
PIST Read Accesses: 2272652
PIST Tag Write Accesses: 4545304
PIST Write Accesses: 2272652
Criticality detector called times: 2968829
Max global_stall_cycles_count: 6297495
Threshold Modified: 1 times, factor: -1
Sturdy critical IP cache stats: 
 Unused entries: 0
CIC Tag Read Accesses: 0
CIC Read Accesses: 0
CIC Tag Write Accesses: 0
CIC Write Accesses: 0
Wobbly critical IP cache stats: 
 Unused entries: 102
CIC Tag Read Accesses: 88426373
CIC Read Accesses: 0
CIC Tag Write Accesses: 50
CIC Write Accesses: 0
ITLB TOTAL     ACCESS:   10440925  HIT:   10046503  MISS:     394422  HIT %:    96.2223  MISS %:    3.77765   MPKI: 7.88844
ITLB LOAD TRANSLATION ACCESS:    8215661  HIT:    8181123  MISS:      34538  HIT %:    99.5796  MISS %:   0.420392   MPKI: 0.69076
ITLB TRANSLATION FROM L1D PREFETCHER ACCESS:    2225264  HIT:    1865380  MISS:     359884  HIT %:    83.8274  MISS %:    16.1726   MPKI: 7.19768
ITLB PREFETCH  REQUESTED:          0  ISSUED:          0  USEFUL:     316959  USELESS:      42924
ITLB USEFUL LOAD PREFETCHES:     316959 PREFETCH ISSUED TO LOWER LEVEL:          0  ACCURACY: inf
ITLB TIMELY PREFETCHES:     316959 LATE PREFETCHES: 162 DROPPED PREFETCHES: 27
ITLB PREFETCHES SAME FILL-ORIGIN LEVEL: 0 DIFFERENT FILL-ORIGIN LEVEL: 0
ITLB AVERAGE MISS LATENCY: 18620.7 cycles
ITLB RQ	ACCESS:   15375871	FORWARD:          0	MERGED:    4887591	TO_CACHE:   10488280

DTLB TOTAL     ACCESS:   10795871  HIT:   10605666  MISS:     190205  HIT %:    98.2382  MISS %:    1.76183   MPKI: 3.8041
DTLB LOAD TRANSLATION ACCESS:   10795871  HIT:   10605666  MISS:     190205  HIT %:    98.2382  MISS %:    1.76183   MPKI: 3.8041
DTLB PREFETCH  REQUESTED:          0  ISSUED:          0  USEFUL:          0  USELESS:          0
DTLB USEFUL LOAD PREFETCHES:          0 PREFETCH ISSUED TO LOWER LEVEL:          0  ACCURACY: -nan
DTLB TIMELY PREFETCHES:          0 LATE PREFETCHES: 0 DROPPED PREFETCHES: 0
DTLB PREFETCHES SAME FILL-ORIGIN LEVEL: 0 DIFFERENT FILL-ORIGIN LEVEL: 0
DTLB AVERAGE MISS LATENCY: 9.76227 cycles
DTLB RQ	ACCESS:   15651851	FORWARD:          0	MERGED:    4840563	TO_CACHE:   10811288

STLB TOTAL     ACCESS:     604486  HIT:     603246  MISS:       1240  HIT %:    99.7949  MISS %:   0.205133   MPKI: 0.0248
STLB LOAD TRANSLATION ACCESS:     224581  HIT:     223406  MISS:       1175  HIT %:    99.4768  MISS %:   0.523197   MPKI: 0.0235
STLB TRANSLATION FROM L1D PREFETCHER ACCESS:     379905  HIT:     379840  MISS:         65  HIT %:    99.9829  MISS %:  0.0171095   MPKI: 0.0013
STLB PREFETCH  REQUESTED:          0  ISSUED:          0  USEFUL:         58  USELESS:          3
STLB USEFUL LOAD PREFETCHES:         58 PREFETCH ISSUED TO LOWER LEVEL:          0  ACCURACY: inf
STLB TIMELY PREFETCHES:         58 LATE PREFETCHES: 0 DROPPED PREFETCHES: 27
STLB PREFETCHES SAME FILL-ORIGIN LEVEL: 0 DIFFERENT FILL-ORIGIN LEVEL: 0
STLB AVERAGE MISS LATENCY: 137.878 cycles
STLB RQ	ACCESS:     624938	FORWARD:          0	MERGED:      20425	TO_CACHE:     604513

STLB Hit, L1D data hit: 0
STLB Hit, L2C data hit: 0
STLB Hit, LLC data hit: 0
STLB Hit, LLC data miss: 0
STLB STLB hints to L2: 0
L1D TOTAL     ACCESS:   15625346  HIT:   15562080  MISS:      63266  HIT %:    99.5951  MISS %:   0.404893   MPKI: 1.26532
L1D LOAD      ACCESS:    7134307  HIT:    7109837  MISS:      24470  HIT %:     99.657  MISS %:   0.342991   MPKI: 0.4894
L1D RFO       ACCESS:    8459327  HIT:    8427051  MISS:      32276  HIT %:    99.6185  MISS %:   0.381543   MPKI: 0.64552
L1D PREFETCH  ACCESS:      31712  HIT:      25192  MISS:       6520  HIT %:      79.44  MISS %:      20.56   MPKI: 0.1304
L1D PREFETCH  REQUESTED:      80651  ISSUED:      80631  USEFUL:       4865  USELESS:       1603
L1D USEFUL LOAD PREFETCHES:       4865 PREFETCH ISSUED TO LOWER LEVEL:      11673  ACCURACY: 41.6774
L1D TIMELY PREFETCHES:       4865 LATE PREFETCHES: 5153 DROPPED PREFETCHES: 0
L1D PREFETCHES SAME FILL-ORIGIN LEVEL: 11673 DIFFERENT FILL-ORIGIN LEVEL: 0
L1D AVERAGE MISS LATENCY: 4.67864e+06 cycles
L1D RQ	ACCESS:   11277595	FORWARD:          0	MERGED:    3975810	TO_CACHE:    7138795
L1D WQ	ACCESS:    8638567	FORWARD:     163053	MERGED:     125511	TO_CACHE:    8513056
L1D PQ	ACCESS:      40347	FORWARD:          0	MERGED:          0	TO_CACHE:      40284

L1D UNIQUE REGIONS ACCESSED: 0
L1D REGIONS CONFLICTS: 0
L1D Cross Page Prefetch Requests: 0
L1D Same Page Prefetch Requests: 42074
L1D ROI Sum of L1D PQ occupancy: 1490153
L1D PREFETCHES PUSHED FROM L2C: 0
L1I TOTAL     ACCESS:   15325048  HIT:   13220944  MISS:    2104104  HIT %:    86.2702  MISS %:    13.7298   MPKI: 42.0821
L1I LOAD      ACCESS:    9536629  HIT:    9506112  MISS:      30517  HIT %:      99.68  MISS %:   0.319998   MPKI: 0.61034
L1I PREFETCH  ACCESS:    5788419  HIT:    3714832  MISS:    2073587  HIT %:     64.177  MISS %:     35.823   MPKI: 41.4717
L1I PREFETCH  REQUESTED:    6041810  ISSUED:    6039842  USEFUL:    1792697  USELESS:     280891
L1I USEFUL LOAD PREFETCHES:    1792697 PREFETCH ISSUED TO LOWER LEVEL:    2082901  ACCURACY: 86.0673
L1I TIMELY PREFETCHES:    1792697 LATE PREFETCHES: 9314 DROPPED PREFETCHES: 33
L1I PREFETCHES SAME FILL-ORIGIN LEVEL: 2082901 DIFFERENT FILL-ORIGIN LEVEL: 0
L1I AVERAGE MISS LATENCY: 192129 cycles
L1I RQ	ACCESS:   13767487	FORWARD:          0	MERGED:    4225911	TO_CACHE:    9541576
L1I PQ	ACCESS:    6039842	FORWARD:          0	MERGED:     205547	TO_CACHE:    5834295

BTB TOTAL     ACCESS:    5705846  HIT:    5254646  MISS:     451200  HIT %:    92.0923  MISS %:    7.90768   MPKI: 9.024
BTB BRANCH_DIRECT_JUMP	ACCESS:     449415  HIT:     448069  MISS:       1346
BTB BRANCH_INDIRECT	ACCESS:       2330  HIT:       2200  MISS:        130
BTB BRANCH_CONDITIONAL	ACCESS:    2664995  HIT:    2660208  MISS:       4787
BTB BRANCH_DIRECT_CALL	ACCESS:    1172178  HIT:    1168562  MISS:       3616
BTB BRANCH_INDIRECT_CALL	ACCESS:     122383  HIT:     109013  MISS:      13370
BTB BRANCH_RETURN	ACCESS:    1294545  HIT:     866594  MISS:     427951
BTB BRANCH_OTHER ACCESS:          0  HIT:          0  MISS:          0

L2C TOTAL     ACCESS:    2206741  HIT:    2134880  MISS:      71861  HIT %:    96.7436  MISS %:    3.25643   MPKI: 1.43722
L2C LOAD      ACCESS:      40520  HIT:      22120  MISS:      18400  HIT %:    54.5903  MISS %:    45.4097   MPKI: 0.368
L2C DATA LOAD MPKI: 0.28248
L2C INSTRUCTION LOAD MPKI: 0.08552
L2C RFO       ACCESS:      32276  HIT:       1113  MISS:      31163  HIT %:    3.44838  MISS %:    96.5516   MPKI: 0.62326
L2C PREFETCH  ACCESS:    2094573  HIT:    2074170  MISS:      20403  HIT %:    99.0259  MISS %:   0.974089   MPKI: 0.40806
L2C DATA PREFETCH MPKI: 0.21896
L2C INSTRUCTION PREFETCH MPKI: 0.1891
L2C WRITEBACK ACCESS:      37927  HIT:      36736  MISS:       1191  HIT %:    96.8598  MISS %:    3.14024   MPKI: 0.02382
L2C LOAD TRANSLATION ACCESS:       1342  HIT:        683  MISS:        659  HIT %:    50.8942  MISS %:    49.1058   MPKI: 0.01318
L2C TRANSLATION FROM L1D PREFETCHER ACCESS:        103  HIT:         58  MISS:         45  HIT %:    56.3107  MISS %:    43.6893   MPKI: 0.0009
L2C PREFETCH  REQUESTED:          0  ISSUED:          0  USEFUL:        849  USELESS:      18666
L2C USEFUL LOAD PREFETCHES:        849 PREFETCH ISSUED TO LOWER LEVEL:      20403  ACCURACY: 4.16115
L2C TIMELY PREFETCHES:        849 LATE PREFETCHES: 0 DROPPED PREFETCHES: 0
L2C PREFETCHES SAME FILL-ORIGIN LEVEL: 0 DIFFERENT FILL-ORIGIN LEVEL: 0
L2C AVERAGE MISS LATENCY: 202.173 cycles
L2C RQ	ACCESS:      74241	FORWARD:          0	MERGED:          0	TO_CACHE:      74241
L2C WQ	ACCESS:      37927	FORWARD:          0	MERGED:          0	TO_CACHE:      37927
L2C PQ	ACCESS:    2094574	FORWARD:          0	MERGED:          0	TO_CACHE:    2094574

L2C Instructions Evicting Data 11229
L2C Translations Evicting Data 562
L2C Data Evicting Data 44610
L2C Instructions Evicting Instructions 2355
L2C Translations Evicting Instructions 131
L2C Data Evicting Instructions 11095
L2C Instructions Evicting Translations 147
L2C Translations Evicting Translations 11
L2C Data Evicting Translations 530
L2C Dense regions hint from L2: 0
PSCL5 TOTAL     ACCESS:       1267  HIT:       1267  MISS:          0  HIT %:        100  MISS %:          0   MPKI: 0
PSCL5 LOAD TRANSLATION ACCESS:       1175  HIT:       1175  MISS:          0  HIT %:        100  MISS %:          0   MPKI: 0
PSCL5 TRANSLATION FROM L1D PREFETCHER ACCESS:         92  HIT:         92  MISS:          0  HIT %:        100  MISS %:          0   MPKI: 0
PSCL5 PREFETCH  REQUESTED:          0  ISSUED:          0  USEFUL:          0  USELESS:          0
PSCL5 USEFUL LOAD PREFETCHES:          0 PREFETCH ISSUED TO LOWER LEVEL:          0  ACCURACY: -nan
PSCL5 TIMELY PREFETCHES:          0 LATE PREFETCHES: 0 DROPPED PREFETCHES: 0
PSCL5 PREFETCHES SAME FILL-ORIGIN LEVEL: 0 DIFFERENT FILL-ORIGIN LEVEL: 0

PSCL4 TOTAL     ACCESS:       1011  HIT:       1001  MISS:         10  HIT %:    99.0109  MISS %:    0.98912   MPKI: 0.0002
PSCL4 LOAD TRANSLATION ACCESS:        932  HIT:        922  MISS:         10  HIT %:     98.927  MISS %:    1.07296   MPKI: 0.0002
PSCL4 TRANSLATION FROM L1D PREFETCHER ACCESS:         79  HIT:         79  MISS:          0  HIT %:        100  MISS %:          0   MPKI: 0
PSCL4 PREFETCH  REQUESTED:          0  ISSUED:          0  USEFUL:          0  USELESS:          0
PSCL4 USEFUL LOAD PREFETCHES:          0 PREFETCH ISSUED TO LOWER LEVEL:          0  ACCURACY: -nan
PSCL4 TIMELY PREFETCHES:          0 LATE PREFETCHES: 0 DROPPED PREFETCHES: 0
PSCL4 PREFETCHES SAME FILL-ORIGIN LEVEL: 0 DIFFERENT FILL-ORIGIN LEVEL: 0

PSCL3 TOTAL     ACCESS:       1187  HIT:       1177  MISS:         10  HIT %:    99.1575  MISS %:    0.84246   MPKI: 0.0002
PSCL3 LOAD TRANSLATION ACCESS:       1108  HIT:       1098  MISS:         10  HIT %:    99.0975  MISS %:   0.902527   MPKI: 0.0002
PSCL3 TRANSLATION FROM L1D PREFETCHER ACCESS:         79  HIT:         79  MISS:          0  HIT %:        100  MISS %:          0   MPKI: 0
PSCL3 PREFETCH  REQUESTED:          0  ISSUED:          0  USEFUL:          0  USELESS:          0
PSCL3 USEFUL LOAD PREFETCHES:          0 PREFETCH ISSUED TO LOWER LEVEL:          0  ACCURACY: -nan
PSCL3 TIMELY PREFETCHES:          0 LATE PREFETCHES: 0 DROPPED PREFETCHES: 0
PSCL3 PREFETCHES SAME FILL-ORIGIN LEVEL: 0 DIFFERENT FILL-ORIGIN LEVEL: 0

PSCL2 TOTAL     ACCESS:       1264  HIT:       1113  MISS:        151  HIT %:    88.0538  MISS %:    11.9462   MPKI: 0.00302
PSCL2 LOAD TRANSLATION ACCESS:       1179  HIT:       1028  MISS:        151  HIT %:    87.1925  MISS %:    12.8075   MPKI: 0.00302
PSCL2 TRANSLATION FROM L1D PREFETCHER ACCESS:         85  HIT:         85  MISS:          0  HIT %:        100  MISS %:          0   MPKI: 0
PSCL2 PREFETCH  REQUESTED:          0  ISSUED:          0  USEFUL:          0  USELESS:          0
PSCL2 USEFUL LOAD PREFETCHES:          0 PREFETCH ISSUED TO LOWER LEVEL:          0  ACCURACY: -nan
PSCL2 TIMELY PREFETCHES:          0 LATE PREFETCHES: 0 DROPPED PREFETCHES: 0
PSCL2 PREFETCHES SAME FILL-ORIGIN LEVEL: 0 DIFFERENT FILL-ORIGIN LEVEL: 0

LLC TOTAL     ACCESS:     105523  HIT:      58026  MISS:      47497  HIT %:     54.989  MISS %:     45.011   MPKI: 0.94994
LLC LOAD      ACCESS:      18400  HIT:       5609  MISS:      12791  HIT %:    30.4837  MISS %:    69.5163   MPKI: 0.25582
LLC RFO       ACCESS:      31163  HIT:       8938  MISS:      22225  HIT %:    28.6814  MISS %:    71.3186   MPKI: 0.4445
LLC PREFETCH  ACCESS:      20403  HIT:       8718  MISS:      11685  HIT %:     42.729  MISS %:     57.271   MPKI: 0.2337
LLC WRITEBACK ACCESS:      34853  HIT:      34494  MISS:        359  HIT %:      98.97  MISS %:    1.03004   MPKI: 0.00718
LLC LOAD TRANSLATION ACCESS:        659  HIT:        236  MISS:        423  HIT %:    35.8118  MISS %:    64.1882   MPKI: 0.00846
LLC TRANSLATION FROM L1D PREFETCHER ACCESS:         45  HIT:         31  MISS:         14  HIT %:    68.8889  MISS %:    31.1111   MPKI: 0.00028
LLC PREFETCH  REQUESTED:          0  ISSUED:          0  USEFUL:        793  USELESS:       6626
LLC USEFUL LOAD PREFETCHES:        793 PREFETCH ISSUED TO LOWER LEVEL:      11685  ACCURACY: 6.78648
LLC TIMELY PREFETCHES:        793 LATE PREFETCHES: 0 DROPPED PREFETCHES: 0
LLC PREFETCHES SAME FILL-ORIGIN LEVEL: 0 DIFFERENT FILL-ORIGIN LEVEL: 0
LLC AVERAGE MISS LATENCY: 261.201 cycles
LLC RQ	ACCESS:      50267	FORWARD:          0	MERGED:          0	TO_CACHE:      50267
LLC WQ	ACCESS:      34853	FORWARD:          0	MERGED:          0	TO_CACHE:      34853
LLC PQ	ACCESS:      20403	FORWARD:          0	MERGED:          0	TO_CACHE:      20403

LLC Dense regions hint to LLC: 0

RAW hits: 1534800
Loads Generated: 12812392
Loads sent to L1D: 11277595
Stores Generated: 8638565
Stores sent to L1D: 8638567
Major fault: 0 Minor fault: 2022
Allocated PAGES: 2022
I-Shadow cache 408 bytes
Touched + WorthPF tables 6144 bytes 
MMA filter 174 bytes 
FNL filter 272 bytes 
TOTAL PREFETCHER STORAGE SIZE: 25174 bytes
CPU 0 L1I next line prefetcher final stats

stream: 
stream:times selected: 50473
stream:pref_filled: 6576
stream:pref_useful: 4952
stream:pref_late: 5193
stream:misses: 403
stream:misses_by_poll: 0

CS: 
CS:times selected: 42825
CS:pref_filled: 83
CS:pref_useful: 74
CS:pref_late: 68
CS:misses: 7286
CS:misses_by_poll: 0

CPLX: 
CPLX:times selected: 7426
CPLX:pref_filled: 266
CPLX:pref_useful: 83
CPLX:pref_late: 12
CPLX:misses: 782
CPLX:misses_by_poll: 0

NL_L1: 
NL:times selected: 179
NL:pref_filled: 3
NL:pref_useful: 0
NL:pref_late: 4
NL:misses: 10
NL:misses_by_poll: 0

total selections: 100903
total_filled: 6520
total_useful: 4865
total_late: 5345
total_polluted: 0
total_misses_after_warmup: 8461
conflicts: 123356
Degree Incremented Times: 62
Degree Decremented Times: 8

L1 IP Table Write Accesses: 183347
L1 IP Table Read Accesses: 59991
L1 RST Write Accesses: 49957
L1 RST Read Accesses: 99914
L1 CSPT Write Accesses: 49957
L1 CSPT Read Accesses: 69484
L1 RR Filter Tag Write Accesses: 40367
L1 RR Filter Tag Read Accesses: 12300773
L1 IP Table Tag Write Accesses: 309635
L1 IP Table Tag Read Accesses: 309635
L1 RST Tag Write Accesses: 0
L1 RST Tag Read Accesses: 542950
L1 RR Filter Write Accesses: 0
L1 RR Filter Read Accesses: 416712
test: 3380

DRAM Statistics
 CHANNEL 0
 RQ ROW_BUFFER_HIT:      19307  ROW_BUFFER_MISS:      27831
 DBUS_CONGESTED:         12
 WQ ROW_BUFFER_HIT:       6084  ROW_BUFFER_MISS:      20317  FULL:          0

 AVG_CONGESTED_CYCLE: 3
 All warmup complete: 2
Channel 0 Bank busy for read cycles: 0
Channel 0 Bank busy for write cycles: 0
Channel 0
Rank 0
0banks busy for read cycles: 65056827
0banks busy for write cycles: 1616
1banks busy for read cycles: 621930
1banks busy for write cycles: 225534
2banks busy for read cycles: 304039
2banks busy for write cycles: 158234
3banks busy for read cycles: 147217
3banks busy for write cycles: 102462
4banks busy for read cycles: 83454
4banks busy for write cycles: 68418
5banks busy for read cycles: 73394
5banks busy for write cycles: 57957
6banks busy for read cycles: 84862
6banks busy for write cycles: 53977
7banks busy for read cycles: 95467
7banks busy for write cycles: 81463
8banks busy for read cycles: 215855
8banks busy for write cycles: 340982

CPU 0 Branch Prediction Accuracy: 99.7719% MPKI: 0.38824 Average ROB Occupancy at Mispredict: 47.7195
Branch types
NOT_BRANCH: 41488827 82.9776%
BRANCH_DIRECT_JUMP: 449415 0.89883%
BRANCH_INDIRECT: 2330 0.00466%
BRANCH_CONDITIONAL: 5470003 10.94%
BRANCH_DIRECT_CALL: 1172178 2.34436%
BRANCH_INDIRECT_CALL: 122383 0.244766%
BRANCH_RETURN: 1294545 2.58909%
BRANCH_OTHER: 0 0%

DRAM PAGES: 1048576
Allocated PAGES: 2022
