
*** ChampSim Multicore Out-of-Order Simulator ***

Warmup Instructions: 50000000
Simulation Instructions: 50000000
Number of CPUs: 1
LLC sets: 2048
LLC ways: 16
Off-chip DRAM Size: 4096 MB Channels: 1 Width: 64-bit Data Rate: 6400 MT/s
CPU 0 runs ../IPC-traces//server_028.champsimtrace.xz
.xz
NUM_OF_IPS_IN_CRITICAL_IP_TRAINING: 64
NUM_OF_CRITICAL_IP_TRAINING_TABLE_WAYS: 2
NUM_OF_CRITICAL_IP_TRAINING_TABLE_SETS: 32
WOBBLY_CRITICAL_IP_CACHE_SETS: 32
WOBBLY_CRITICAL_IP_CACHE_WAYS: 4
BTB has LRU replacement policy
ITLB has LRU replacement policy
DTLB has LRU replacement policy
STLB has LRU replacement policy
CPU 0 L1I next line prefetcher
L1I has LRU replacement policy
IP Table Entries: 64
L1D has LRU replacement policy
Initialize SRRIP state for L2C
Initialize DRRIP state for LLC
Heartbeat CPU 0 instructions: 10000001 cycles: 2882164 heartbeat IPC: 3.46962 cumulative IPC: 3.46962 (Simulation time: 0 hr 2 min 5 sec) 
Heartbeat CPU 0 instructions: 20000001 cycles: 5759574 heartbeat IPC: 3.47535 cumulative IPC: 3.47248 (Simulation time: 0 hr 4 min 11 sec) 
Heartbeat CPU 0 instructions: 30000002 cycles: 8636381 heartbeat IPC: 3.47608 cumulative IPC: 3.47368 (Simulation time: 0 hr 6 min 17 sec) 
Heartbeat CPU 0 instructions: 40000000 cycles: 11515679 heartbeat IPC: 3.47307 cumulative IPC: 3.47353 (Simulation time: 0 hr 8 min 23 sec) 
Heartbeat CPU 0 instructions: 50000001 cycles: 14392465 heartbeat IPC: 3.4761 cumulative IPC: 3.47404 (Simulation time: 0 hr 10 min 21 sec) 

Warmup complete CPU 0 instructions: 50000001 cycles: 14392465 (Simulation time: 0 hr 10 min 21 sec) 

% increase in all ip prefetch 416.616
% increase in all ip prefetch 0.767012
Heartbeat CPU 0 instructions: 60000000 cycles: 30611045 heartbeat IPC: 0.616577 cumulative IPC: 0.616577 (Simulation time: 0 hr 12 min 49 sec) 
Heartbeat CPU 0 instructions: 70000000 cycles: 46756459 heartbeat IPC: 0.619371 cumulative IPC: 0.617971 (Simulation time: 0 hr 15 min 13 sec) 
Heartbeat CPU 0 instructions: 80000000 cycles: 62922678 heartbeat IPC: 0.618574 cumulative IPC: 0.618172 (Simulation time: 0 hr 17 min 36 sec) 
*** Reached end of trace for Core: 0 Repeating trace: ../IPC-traces//server_028.champsimtrace.xz
Heartbeat CPU 0 instructions: 90000001 cycles: 79008874 heartbeat IPC: 0.621651 cumulative IPC: 0.619038 (Simulation time: 0 hr 19 min 57 sec) 
Heartbeat CPU 0 instructions: 100000003 cycles: 95050821 heartbeat IPC: 0.623366 cumulative IPC: 0.619899 (Simulation time: 0 hr 23 min 34 sec) 
Finished CPU 0 instructions: 50000002 cycles: 80658356 cumulative IPC: 0.619899 (Simulation time: 0 hr 23 min 34 sec) 

ChampSim completed all CPUs

Region of Interest Statistics

CPU 0 cumulative IPC: 0.619899 instructions: 50000002 cycles: 80658356

CPU 0 Average Load ROB stall cycles: 1.96111e+07
CPU 0 Fraction of times ROB stalled by Loads: 35.785
CPU 0 Percentage of Load stall cycles in Total stall cycles: 2.71019e+08
Issued all: 28026995
Issued LT all: 22104826
rob_not_full_when_issued_lt_all: 22034654
Issued LT one: 17224670
rob_not_full_when_issued_lt_one: 17161902
 Total stall cycles: 68318918
 Total load stall cycles: 185157319693959
Unique Load IPs: 11309
CPU 0 NUM of IPS identified critical: 4
CPU 0 Num of Load IPs stalling ROB: 10054
Threshold modification factor: -1
Max PIST entries: 64
Min PIST entries: 0
Avg PIST entries: 32
Trouble in retire width: 0.88979
MaC = Marked as critical.
lt_50_percent_before_Mac: 4
gt_90_percent_before_Mac: 0
gt_75_percent_before_Mac: 0
gt_50_percent_before_Mac: 0
stall_proportion_bin_same_before_after: 0
stall_proportion_bin_lower_before_after: 0
stall_proportion_bin_upper_before_after: 0
average_stall_proportion_before: 0.136012
average_stall_proportion_after: 0.135494
Critical IP stalls, total frequency: 90911
Non-critical IP stalls, total frequency: 3287712
Total Freq all stalling IPs: 3378623
Critical_IP_Detector_Accuracy_70: 1
Critical_IP_Detector_Accuracy_80: 1
Critical_IP_Detector_Accuracy_90: 1
Critical_IP_Detector_Coverage_70: 0.00318218
Critical_IP_Detector_Coverage_80: 0.00234329
Critical_IP_Detector_Coverage_90: 0.00180099
stat_90_percent_critical_ip_stalls_freq: 3041153
stat_90_percent_non_critical_ip_stalls_freq: 337470
AVERAGE_ROB_Occupancy_90_Percent_Critical_IP_Stalls: 47.1332
AVERAGE_ROB_Occupancy_90_Percent_Non_Critical_IP_Stalls: 33.3633
Critical_IP_ROB_Stalls_Bucket_0: 6725
Non-critical_IP_ROB_Stalls_Bucket_0: 2340347
Critical_IP_ROB_Stalls_Bucket_1: 23079
Non-critical_IP_ROB_Stalls_Bucket_1: 678828
Critical_IP_ROB_Stalls_Bucket_2: 37527
Non-critical_IP_ROB_Stalls_Bucket_2: 198713
Critical_IP_ROB_Stalls_Bucket_3: 12463
Non-critical_IP_ROB_Stalls_Bucket_3: 47878
Critical_IP_ROB_Stalls_Bucket_4: 4409
Non-critical_IP_ROB_Stalls_Bucket_4: 16617
Critical_IP_ROB_Stalls_Bucket_5: 2352
Non-critical_IP_ROB_Stalls_Bucket_5: 3682
Critical_IP_ROB_Stalls_Bucket_6: 4356
Non-critical_IP_ROB_Stalls_Bucket_6: 1647
0 => IPs accounting for >50 percent of stalls, 1 => 55, 2 => 60, 3 => 65 and so on till 90.
percent50: 50.0342 num IPs:  427
percent55: 55.0061 num IPs: 608
percent60: 60.0121 num IPs: 819
percent65: 65.0042 num IPs: 1034
percent70: 70.0069 num IPs: 1257
percent75: 75.0172 num IPs: 1481
percent80: 80.0016 num IPs: 1707
percent85: 85.0124 num IPs: 1944
percent90: 90.0123 num IPs: 2221
Critical_ROB_Stalls_Percent_0_Bucket_0: 1003083
Non-critical_ROB_Stalls_Percent_0_Bucket_0: 1343989
Critical_ROB_Stalls_Percent_0_Bucket_1: 429707
Non-critical_ROB_Stalls_Percent_0_Bucket_1: 272200
Critical_ROB_Stalls_Percent_0_Bucket_2: 177617
Non-critical_ROB_Stalls_Percent_0_Bucket_2: 58623
Critical_ROB_Stalls_Percent_0_Bucket_3: 52171
Non-critical_ROB_Stalls_Percent_0_Bucket_3: 8170
Critical_ROB_Stalls_Percent_0_Bucket_4: 17637
Non-critical_ROB_Stalls_Percent_0_Bucket_4: 3389
Critical_ROB_Stalls_Percent_0_Bucket_5: 4924
Non-critical_ROB_Stalls_Percent_0_Bucket_5: 1110
Critical_ROB_Stalls_Percent_0_Bucket_6: 5327
Non-critical_ROB_Stalls_Percent_0_Bucket_6: 676
Critical_ROB_Stalls_Percent_1_Bucket_0: 1125473
Non-critical_ROB_Stalls_Percent_1_Bucket_0: 1221599
Critical_ROB_Stalls_Percent_1_Bucket_1: 460438
Non-critical_ROB_Stalls_Percent_1_Bucket_1: 241469
Critical_ROB_Stalls_Percent_1_Bucket_2: 189486
Non-critical_ROB_Stalls_Percent_1_Bucket_2: 46754
Critical_ROB_Stalls_Percent_1_Bucket_3: 54301
Non-critical_ROB_Stalls_Percent_1_Bucket_3: 6040
Critical_ROB_Stalls_Percent_1_Bucket_4: 18381
Non-critical_ROB_Stalls_Percent_1_Bucket_4: 2645
Critical_ROB_Stalls_Percent_1_Bucket_5: 5017
Non-critical_ROB_Stalls_Percent_1_Bucket_5: 1017
Critical_ROB_Stalls_Percent_1_Bucket_6: 5352
Non-critical_ROB_Stalls_Percent_1_Bucket_6: 651
Critical_ROB_Stalls_Percent_2_Bucket_0: 1236161
Non-critical_ROB_Stalls_Percent_2_Bucket_0: 1110911
Critical_ROB_Stalls_Percent_2_Bucket_1: 509738
Non-critical_ROB_Stalls_Percent_2_Bucket_1: 192169
Critical_ROB_Stalls_Percent_2_Bucket_2: 197517
Non-critical_ROB_Stalls_Percent_2_Bucket_2: 38723
Critical_ROB_Stalls_Percent_2_Bucket_3: 54828
Non-critical_ROB_Stalls_Percent_2_Bucket_3: 5513
Critical_ROB_Stalls_Percent_2_Bucket_4: 18942
Non-critical_ROB_Stalls_Percent_2_Bucket_4: 2084
Critical_ROB_Stalls_Percent_2_Bucket_5: 5033
Non-critical_ROB_Stalls_Percent_2_Bucket_5: 1001
Critical_ROB_Stalls_Percent_2_Bucket_6: 5356
Non-critical_ROB_Stalls_Percent_2_Bucket_6: 647
Critical_ROB_Stalls_Percent_3_Bucket_0: 1366782
Non-critical_ROB_Stalls_Percent_3_Bucket_0: 980290
Critical_ROB_Stalls_Percent_3_Bucket_1: 541022
Non-critical_ROB_Stalls_Percent_3_Bucket_1: 160885
Critical_ROB_Stalls_Percent_3_Bucket_2: 203784
Non-critical_ROB_Stalls_Percent_3_Bucket_2: 32456
Critical_ROB_Stalls_Percent_3_Bucket_3: 55098
Non-critical_ROB_Stalls_Percent_3_Bucket_3: 5243
Critical_ROB_Stalls_Percent_3_Bucket_4: 19136
Non-critical_ROB_Stalls_Percent_3_Bucket_4: 1890
Critical_ROB_Stalls_Percent_3_Bucket_5: 5040
Non-critical_ROB_Stalls_Percent_3_Bucket_5: 994
Critical_ROB_Stalls_Percent_3_Bucket_6: 5375
Non-critical_ROB_Stalls_Percent_3_Bucket_6: 628
Critical_ROB_Stalls_Percent_4_Bucket_0: 1500351
Non-critical_ROB_Stalls_Percent_4_Bucket_0: 846721
Critical_ROB_Stalls_Percent_4_Bucket_1: 567691
Non-critical_ROB_Stalls_Percent_4_Bucket_1: 134216
Critical_ROB_Stalls_Percent_4_Bucket_2: 212036
Non-critical_ROB_Stalls_Percent_4_Bucket_2: 24204
Critical_ROB_Stalls_Percent_4_Bucket_3: 55610
Non-critical_ROB_Stalls_Percent_4_Bucket_3: 4731
Critical_ROB_Stalls_Percent_4_Bucket_4: 19146
Non-critical_ROB_Stalls_Percent_4_Bucket_4: 1880
Critical_ROB_Stalls_Percent_4_Bucket_5: 5043
Non-critical_ROB_Stalls_Percent_4_Bucket_5: 991
Critical_ROB_Stalls_Percent_4_Bucket_6: 5375
Non-critical_ROB_Stalls_Percent_4_Bucket_6: 628
Critical_ROB_Stalls_Percent_5_Bucket_0: 1636718
Non-critical_ROB_Stalls_Percent_5_Bucket_0: 710354
Critical_ROB_Stalls_Percent_5_Bucket_1: 597211
Non-critical_ROB_Stalls_Percent_5_Bucket_1: 104696
Critical_ROB_Stalls_Percent_5_Bucket_2: 215397
Non-critical_ROB_Stalls_Percent_5_Bucket_2: 20843
Critical_ROB_Stalls_Percent_5_Bucket_3: 55630
Non-critical_ROB_Stalls_Percent_5_Bucket_3: 4711
Critical_ROB_Stalls_Percent_5_Bucket_4: 19150
Non-critical_ROB_Stalls_Percent_5_Bucket_4: 1876
Critical_ROB_Stalls_Percent_5_Bucket_5: 5043
Non-critical_ROB_Stalls_Percent_5_Bucket_5: 991
Critical_ROB_Stalls_Percent_5_Bucket_6: 5375
Non-critical_ROB_Stalls_Percent_5_Bucket_6: 628
Critical_ROB_Stalls_Percent_6_Bucket_0: 1781650
Non-critical_ROB_Stalls_Percent_6_Bucket_0: 565422
Critical_ROB_Stalls_Percent_6_Bucket_1: 616528
Non-critical_ROB_Stalls_Percent_6_Bucket_1: 85379
Critical_ROB_Stalls_Percent_6_Bucket_2: 219346
Non-critical_ROB_Stalls_Percent_6_Bucket_2: 16894
Critical_ROB_Stalls_Percent_6_Bucket_3: 55770
Non-critical_ROB_Stalls_Percent_6_Bucket_3: 4571
Critical_ROB_Stalls_Percent_6_Bucket_4: 19192
Non-critical_ROB_Stalls_Percent_6_Bucket_4: 1834
Critical_ROB_Stalls_Percent_6_Bucket_5: 5054
Non-critical_ROB_Stalls_Percent_6_Bucket_5: 980
Critical_ROB_Stalls_Percent_6_Bucket_6: 5390
Non-critical_ROB_Stalls_Percent_6_Bucket_6: 613
Critical_ROB_Stalls_Percent_7_Bucket_0: 1930687
Non-critical_ROB_Stalls_Percent_7_Bucket_0: 416385
Critical_ROB_Stalls_Percent_7_Bucket_1: 634269
Non-critical_ROB_Stalls_Percent_7_Bucket_1: 67638
Critical_ROB_Stalls_Percent_7_Bucket_2: 221621
Non-critical_ROB_Stalls_Percent_7_Bucket_2: 14619
Critical_ROB_Stalls_Percent_7_Bucket_3: 55950
Non-critical_ROB_Stalls_Percent_7_Bucket_3: 4391
Critical_ROB_Stalls_Percent_7_Bucket_4: 19235
Non-critical_ROB_Stalls_Percent_7_Bucket_4: 1791
Critical_ROB_Stalls_Percent_7_Bucket_5: 5064
Non-critical_ROB_Stalls_Percent_7_Bucket_5: 970
Critical_ROB_Stalls_Percent_7_Bucket_6: 5401
Non-critical_ROB_Stalls_Percent_7_Bucket_6: 602
Critical_ROB_Stalls_Percent_8_Bucket_0: 2073927
Non-critical_ROB_Stalls_Percent_8_Bucket_0: 273145
Critical_ROB_Stalls_Percent_8_Bucket_1: 654052
Non-critical_ROB_Stalls_Percent_8_Bucket_1: 47855
Critical_ROB_Stalls_Percent_8_Bucket_2: 224620
Non-critical_ROB_Stalls_Percent_8_Bucket_2: 11620
Critical_ROB_Stalls_Percent_8_Bucket_3: 57030
Non-critical_ROB_Stalls_Percent_8_Bucket_3: 3311
Critical_ROB_Stalls_Percent_8_Bucket_4: 19932
Non-critical_ROB_Stalls_Percent_8_Bucket_4: 1094
Critical_ROB_Stalls_Percent_8_Bucket_5: 5756
Non-critical_ROB_Stalls_Percent_8_Bucket_5: 278
Critical_ROB_Stalls_Percent_8_Bucket_6: 5836
Non-critical_ROB_Stalls_Percent_8_Bucket_6: 167
Average ROB occupancy Load Stall Begin: 37.0314
Average ROB occupancy Load Stall End: 45.7578
Min ROB occupancy Load Stall Begin: 1
Max ROB occupancy Load Stall Begin: 352
Min ROB occupancy Load Stall End: 1
Max ROB occupancy Load Stall End: 352
Average ROB occupancy Critical Load Stall Begin: 126.664
Average ROB occupancy Critical Load Stall End: 132.162
Min ROB occupancy Critical Load Stall Begin: 3
Max ROB occupancy Critical Load Stall Begin: 352
Min ROB occupancy Critical Load Stall End: 3
Max ROB occupancy Critical Load Stall End: 352
 ROB Load Stall Begin Bucket Count 0: 2605595
 ROB Load Stall End Bucket Count 0: 2347072
 ROB Critical Load Stall Begin Bucket Count 0: 7602
 ROB Critical Load Stall End Bucket Count 0: 6598
 ROB Load Stall Begin Bucket Count 1: 521028
 ROB Load Stall End Bucket Count 1: 701907
 ROB Critical Load Stall Begin Bucket Count 1: 25078
 ROB Critical Load Stall End Bucket Count 1: 22574
 ROB Load Stall Begin Bucket Count 2: 178981
 ROB Load Stall End Bucket Count 2: 236240
 ROB Critical Load Stall Begin Bucket Count 2: 35352
 ROB Critical Load Stall End Bucket Count 2: 36509
 ROB Load Stall Begin Bucket Count 3: 46907
 ROB Load Stall End Bucket Count 3: 60341
 ROB Critical Load Stall Begin Bucket Count 3: 10173
 ROB Critical Load Stall End Bucket Count 3: 12136
 ROB Load Stall Begin Bucket Count 4: 15970
 ROB Load Stall End Bucket Count 4: 21026
 ROB Critical Load Stall Begin Bucket Count 4: 4182
 ROB Critical Load Stall End Bucket Count 4: 4351
 ROB Load Stall Begin Bucket Count 5: 4775
 ROB Load Stall End Bucket Count 5: 6034
 ROB Critical Load Stall Begin Bucket Count 5: 2279
 ROB Critical Load Stall End Bucket Count 5: 2321
 ROB Load Stall Begin Bucket Count 6: 5367
 ROB Load Stall End Bucket Count 6: 6003
 ROB Critical Load Stall Begin Bucket Count 6: 4020
 ROB Critical Load Stall End Bucket Count 6: 4197
PIST Tag Read Accesses: 2448206
PIST Read Accesses: 1224103
PIST Tag Write Accesses: 2448206
PIST Write Accesses: 1224103
Criticality detector called times: 3289937
Max global_stall_cycles_count: 2000598
Threshold Modified: 1 times, factor: -1
Sturdy critical IP cache stats: 
 Unused entries: 0
CIC Tag Read Accesses: 0
CIC Read Accesses: 0
CIC Tag Write Accesses: 0
CIC Write Accesses: 0
Wobbly critical IP cache stats: 
 Unused entries: 124
CIC Tag Read Accesses: 82716687
CIC Read Accesses: 0
CIC Tag Write Accesses: 4
CIC Write Accesses: 0
ITLB TOTAL     ACCESS:   10420772  HIT:    9691337  MISS:     729435  HIT %:    93.0002  MISS %:    6.99982   MPKI: 14.5887
ITLB LOAD TRANSLATION ACCESS:    8320006  HIT:    8275928  MISS:      44078  HIT %:    99.4702  MISS %:   0.529783   MPKI: 0.88156
ITLB TRANSLATION FROM L1D PREFETCHER ACCESS:    2100766  HIT:    1415409  MISS:     685357  HIT %:    67.3759  MISS %:    32.6241   MPKI: 13.7071
ITLB PREFETCH  REQUESTED:          0  ISSUED:          0  USEFUL:     553482  USELESS:     131875
ITLB USEFUL LOAD PREFETCHES:     553482 PREFETCH ISSUED TO LOWER LEVEL:          0  ACCURACY: inf
ITLB TIMELY PREFETCHES:     553482 LATE PREFETCHES: 100 DROPPED PREFETCHES: 4892
ITLB PREFETCHES SAME FILL-ORIGIN LEVEL: 0 DIFFERENT FILL-ORIGIN LEVEL: 0
ITLB AVERAGE MISS LATENCY: 5609.47 cycles
ITLB RQ	ACCESS:   15708710	FORWARD:          0	MERGED:    5245697	TO_CACHE:   10463013

DTLB TOTAL     ACCESS:   11105853  HIT:   10566887  MISS:     538966  HIT %:     95.147  MISS %:    4.85299   MPKI: 10.7793
DTLB LOAD TRANSLATION ACCESS:   11105853  HIT:   10566887  MISS:     538966  HIT %:     95.147  MISS %:    4.85299   MPKI: 10.7793
DTLB PREFETCH  REQUESTED:          0  ISSUED:          0  USEFUL:          0  USELESS:          0
DTLB USEFUL LOAD PREFETCHES:          0 PREFETCH ISSUED TO LOWER LEVEL:          0  ACCURACY: -nan
DTLB TIMELY PREFETCHES:          0 LATE PREFETCHES: 0 DROPPED PREFETCHES: 0
DTLB PREFETCHES SAME FILL-ORIGIN LEVEL: 0 DIFFERENT FILL-ORIGIN LEVEL: 0
DTLB AVERAGE MISS LATENCY: 10.904 cycles
DTLB RQ	ACCESS:   14596896	FORWARD:          0	MERGED:    3463341	TO_CACHE:   11133555

STLB TOTAL     ACCESS:    1291966  HIT:    1273139  MISS:      18827  HIT %:    98.5428  MISS %:    1.45724   MPKI: 0.37654
STLB LOAD TRANSLATION ACCESS:     582944  HIT:     567341  MISS:      15603  HIT %:    97.3234  MISS %:    2.67659   MPKI: 0.31206
STLB TRANSLATION FROM L1D PREFETCHER ACCESS:     709022  HIT:     705798  MISS:       3224  HIT %:    99.5453  MISS %:   0.454711   MPKI: 0.06448
STLB PREFETCH  REQUESTED:          0  ISSUED:          0  USEFUL:       1044  USELESS:       2182
STLB USEFUL LOAD PREFETCHES:       1044 PREFETCH ISSUED TO LOWER LEVEL:          0  ACCURACY: inf
STLB TIMELY PREFETCHES:       1044 LATE PREFETCHES: 0 DROPPED PREFETCHES: 4892
STLB PREFETCHES SAME FILL-ORIGIN LEVEL: 0 DIFFERENT FILL-ORIGIN LEVEL: 0
STLB AVERAGE MISS LATENCY: 59.8553 cycles
STLB RQ	ACCESS:    1310210	FORWARD:          0	MERGED:      13352	TO_CACHE:    1296858

STLB Hit, L1D data hit: 0
STLB Hit, L2C data hit: 0
STLB Hit, LLC data hit: 0
STLB Hit, LLC data miss: 0
STLB STLB hints to L2: 0
L1D TOTAL     ACCESS:   14093178  HIT:   12634310  MISS:    1458868  HIT %:    89.6484  MISS %:    10.3516   MPKI: 29.1774
L1D LOAD      ACCESS:    7871800  HIT:    6745154  MISS:    1126646  HIT %:    85.6876  MISS %:    14.3124   MPKI: 22.5329
L1D RFO       ACCESS:    6187321  HIT:    5880370  MISS:     306951  HIT %:     95.039  MISS %:    4.96097   MPKI: 6.13902
L1D PREFETCH  ACCESS:      34057  HIT:       8786  MISS:      25271  HIT %:    25.7979  MISS %:    74.2021   MPKI: 0.50542
L1D PREFETCH  REQUESTED:      73844  ISSUED:      73839  USEFUL:      10360  USELESS:      14905
L1D USEFUL LOAD PREFETCHES:      10360 PREFETCH ISSUED TO LOWER LEVEL:      27017  ACCURACY: 38.3462
L1D TIMELY PREFETCHES:      10360 LATE PREFETCHES: 1742 DROPPED PREFETCHES: 0
L1D PREFETCHES SAME FILL-ORIGIN LEVEL: 27017 DIFFERENT FILL-ORIGIN LEVEL: 0
L1D AVERAGE MISS LATENCY: 22462.2 cycles
L1D RQ	ACCESS:   11209671	FORWARD:          0	MERGED:    3152831	TO_CACHE:    7912757
L1D WQ	ACCESS:    6759297	FORWARD:     144088	MERGED:      75158	TO_CACHE:    6684139
L1D PQ	ACCESS:      36922	FORWARD:          0	MERGED:          0	TO_CACHE:      36917

L1D UNIQUE REGIONS ACCESSED: 0
L1D REGIONS CONFLICTS: 0
L1D Cross Page Prefetch Requests: 0
L1D Same Page Prefetch Requests: 38378
L1D ROI Sum of L1D PQ occupancy: 478251
L1D PREFETCHES PUSHED FROM L2C: 0
L1I TOTAL     ACCESS:   15629381  HIT:   11452673  MISS:    4176708  HIT %:    73.2766  MISS %:    26.7234   MPKI: 83.5342
L1I LOAD      ACCESS:    9765986  HIT:    9682443  MISS:      83543  HIT %:    99.1446  MISS %:   0.855449   MPKI: 1.67086
L1I PREFETCH  ACCESS:    5863395  HIT:    1770230  MISS:    4093165  HIT %:    30.1912  MISS %:    69.8088   MPKI: 81.8633
L1I PREFETCH  REQUESTED:    6054006  ISSUED:    6038609  USEFUL:    2929307  USELESS:    1163868
L1I USEFUL LOAD PREFETCHES:    2929307 PREFETCH ISSUED TO LOWER LEVEL:    4107025  ACCURACY: 71.3243
L1I TIMELY PREFETCHES:    2929307 LATE PREFETCHES: 13858 DROPPED PREFETCHES: 11295
L1I PREFETCHES SAME FILL-ORIGIN LEVEL: 4107025 DIFFERENT FILL-ORIGIN LEVEL: 0
L1I AVERAGE MISS LATENCY: 179347 cycles
L1I RQ	ACCESS:   13587384	FORWARD:          0	MERGED:    3811790	TO_CACHE:    9775594
L1I PQ	ACCESS:    6038609	FORWARD:          0	MERGED:     105493	TO_CACHE:    5933116

BTB TOTAL     ACCESS:    6140417  HIT:    4333497  MISS:    1806920  HIT %:    70.5733  MISS %:    29.4267   MPKI: 36.1384
BTB BRANCH_DIRECT_JUMP	ACCESS:     523489  HIT:     378260  MISS:     145229
BTB BRANCH_INDIRECT	ACCESS:     166997  HIT:     132278  MISS:      34719
BTB BRANCH_CONDITIONAL	ACCESS:    3096552  HIT:    2604377  MISS:     492175
BTB BRANCH_DIRECT_CALL	ACCESS:     989486  HIT:     640103  MISS:     349383
BTB BRANCH_INDIRECT_CALL	ACCESS:     187202  HIT:     119541  MISS:      67661
BTB BRANCH_RETURN	ACCESS:    1176691  HIT:     458938  MISS:     717753
BTB BRANCH_OTHER ACCESS:          0  HIT:          0  MISS:          0

L2C TOTAL     ACCESS:    6257654  HIT:    5876179  MISS:     381475  HIT %:    93.9039  MISS %:    6.09613   MPKI: 7.6295
L2C LOAD      ACCESS:    1194539  HIT:    1057653  MISS:     136886  HIT %:    88.5407  MISS %:    11.4593   MPKI: 2.73772
L2C DATA LOAD MPKI: 2.57476
L2C INSTRUCTION LOAD MPKI: 0.16296
L2C RFO       ACCESS:     306947  HIT:     280933  MISS:      26014  HIT %:    91.5249  MISS %:    8.47508   MPKI: 0.52028
L2C PREFETCH  ACCESS:    4134039  HIT:    3940090  MISS:     193949  HIT %:    95.3085  MISS %:    4.69151   MPKI: 3.87898
L2C DATA PREFETCH MPKI: 0.23156
L2C INSTRUCTION PREFETCH MPKI: 3.64742
L2C WRITEBACK ACCESS:     587537  HIT:     574162  MISS:      13375  HIT %:    97.7235  MISS %:    2.27645   MPKI: 0.2675
L2C LOAD TRANSLATION ACCESS:      23334  HIT:      13041  MISS:      10293  HIT %:    55.8884  MISS %:    44.1116   MPKI: 0.20586
L2C TRANSLATION FROM L1D PREFETCHER ACCESS:      11258  HIT:      10300  MISS:        958  HIT %:    91.4905  MISS %:     8.5095   MPKI: 0.01916
L2C PREFETCH  REQUESTED:          0  ISSUED:          0  USEFUL:       2940  USELESS:     192035
L2C USEFUL LOAD PREFETCHES:       2940 PREFETCH ISSUED TO LOWER LEVEL:     193949  ACCURACY: 1.51586
L2C TIMELY PREFETCHES:       2940 LATE PREFETCHES: 0 DROPPED PREFETCHES: 0
L2C PREFETCHES SAME FILL-ORIGIN LEVEL: 0 DIFFERENT FILL-ORIGIN LEVEL: 0
L2C AVERAGE MISS LATENCY: 42.5973 cycles
L2C RQ	ACCESS:    1536127	FORWARD:          0	MERGED:          0	TO_CACHE:    1536078
L2C WQ	ACCESS:     587537	FORWARD:         50	MERGED:          0	TO_CACHE:     587537
L2C PQ	ACCESS:    4134042	FORWARD:          0	MERGED:          0	TO_CACHE:    4134041

L2C Instructions Evicting Data 75608
L2C Translations Evicting Data 7129
L2C Data Evicting Data 91608
L2C Instructions Evicting Instructions 111741
L2C Translations Evicting Instructions 3177
L2C Data Evicting Instructions 67724
L2C Instructions Evicting Translations 3170
L2C Translations Evicting Translations 945
L2C Data Evicting Translations 6998
L2C Dense regions hint from L2: 0
PSCL5 TOTAL     ACCESS:      23719  HIT:      23719  MISS:          0  HIT %:        100  MISS %:          0   MPKI: 0
PSCL5 LOAD TRANSLATION ACCESS:      15603  HIT:      15603  MISS:          0  HIT %:        100  MISS %:          0   MPKI: 0
PSCL5 TRANSLATION FROM L1D PREFETCHER ACCESS:       8116  HIT:       8116  MISS:          0  HIT %:        100  MISS %:          0   MPKI: 0
PSCL5 PREFETCH  REQUESTED:          0  ISSUED:          0  USEFUL:          0  USELESS:          0
PSCL5 USEFUL LOAD PREFETCHES:          0 PREFETCH ISSUED TO LOWER LEVEL:          0  ACCURACY: -nan
PSCL5 TIMELY PREFETCHES:          0 LATE PREFETCHES: 0 DROPPED PREFETCHES: 0
PSCL5 PREFETCHES SAME FILL-ORIGIN LEVEL: 0 DIFFERENT FILL-ORIGIN LEVEL: 0

PSCL4 TOTAL     ACCESS:      23133  HIT:      22940  MISS:        193  HIT %:    99.1657  MISS %:   0.834306   MPKI: 0.00386
PSCL4 LOAD TRANSLATION ACCESS:      15143  HIT:      14950  MISS:        193  HIT %:    98.7255  MISS %:    1.27452   MPKI: 0.00386
PSCL4 TRANSLATION FROM L1D PREFETCHER ACCESS:       7990  HIT:       7990  MISS:          0  HIT %:        100  MISS %:          0   MPKI: 0
PSCL4 PREFETCH  REQUESTED:          0  ISSUED:          0  USEFUL:          0  USELESS:          0
PSCL4 USEFUL LOAD PREFETCHES:          0 PREFETCH ISSUED TO LOWER LEVEL:          0  ACCURACY: -nan
PSCL4 TIMELY PREFETCHES:          0 LATE PREFETCHES: 0 DROPPED PREFETCHES: 0
PSCL4 PREFETCHES SAME FILL-ORIGIN LEVEL: 0 DIFFERENT FILL-ORIGIN LEVEL: 0

PSCL3 TOTAL     ACCESS:      23563  HIT:      23370  MISS:        193  HIT %:    99.1809  MISS %:   0.819081   MPKI: 0.00386
PSCL3 LOAD TRANSLATION ACCESS:      15573  HIT:      15380  MISS:        193  HIT %:    98.7607  MISS %:    1.23932   MPKI: 0.00386
PSCL3 TRANSLATION FROM L1D PREFETCHER ACCESS:       7990  HIT:       7990  MISS:          0  HIT %:        100  MISS %:          0   MPKI: 0
PSCL3 PREFETCH  REQUESTED:          0  ISSUED:          0  USEFUL:          0  USELESS:          0
PSCL3 USEFUL LOAD PREFETCHES:          0 PREFETCH ISSUED TO LOWER LEVEL:          0  ACCURACY: -nan
PSCL3 TIMELY PREFETCHES:          0 LATE PREFETCHES: 0 DROPPED PREFETCHES: 0
PSCL3 PREFETCHES SAME FILL-ORIGIN LEVEL: 0 DIFFERENT FILL-ORIGIN LEVEL: 0

PSCL2 TOTAL     ACCESS:      21683  HIT:      13272  MISS:       8411  HIT %:    61.2092  MISS %:    38.7908   MPKI: 0.16822
PSCL2 LOAD TRANSLATION ACCESS:      16621  HIT:       8210  MISS:       8411  HIT %:    49.3953  MISS %:    50.6047   MPKI: 0.16822
PSCL2 TRANSLATION FROM L1D PREFETCHER ACCESS:       5062  HIT:       5062  MISS:          0  HIT %:        100  MISS %:          0   MPKI: 0
PSCL2 PREFETCH  REQUESTED:          0  ISSUED:          0  USEFUL:          0  USELESS:          0
PSCL2 USEFUL LOAD PREFETCHES:          0 PREFETCH ISSUED TO LOWER LEVEL:          0  ACCURACY: -nan
PSCL2 TIMELY PREFETCHES:          0 LATE PREFETCHES: 0 DROPPED PREFETCHES: 0
PSCL2 PREFETCHES SAME FILL-ORIGIN LEVEL: 0 DIFFERENT FILL-ORIGIN LEVEL: 0

LLC TOTAL     ACCESS:     405113  HIT:     368795  MISS:      36318  HIT %:    91.0351  MISS %:    8.96491   MPKI: 0.72636
LLC LOAD      ACCESS:     136885  HIT:     110835  MISS:      26050  HIT %:    80.9694  MISS %:    19.0306   MPKI: 0.521
LLC RFO       ACCESS:      26014  HIT:      24040  MISS:       1974  HIT %:    92.4118  MISS %:    7.58822   MPKI: 0.03948
LLC PREFETCH  ACCESS:     193949  HIT:     186848  MISS:       7101  HIT %:    96.3387  MISS %:    3.66127   MPKI: 0.14202
LLC WRITEBACK ACCESS:      37014  HIT:      36826  MISS:        188  HIT %:    99.4921  MISS %:   0.507916   MPKI: 0.00376
LLC LOAD TRANSLATION ACCESS:      10293  HIT:       9298  MISS:        995  HIT %:    90.3332  MISS %:    9.66676   MPKI: 0.0199
LLC TRANSLATION FROM L1D PREFETCHER ACCESS:        958  HIT:        948  MISS:         10  HIT %:    98.9562  MISS %:    1.04384   MPKI: 0.0002
LLC PREFETCH  REQUESTED:          0  ISSUED:          0  USEFUL:        295  USELESS:       4097
LLC USEFUL LOAD PREFETCHES:        295 PREFETCH ISSUED TO LOWER LEVEL:       7101  ACCURACY: 4.15434
LLC TIMELY PREFETCHES:        295 LATE PREFETCHES: 0 DROPPED PREFETCHES: 0
LLC PREFETCHES SAME FILL-ORIGIN LEVEL: 0 DIFFERENT FILL-ORIGIN LEVEL: 0
LLC AVERAGE MISS LATENCY: 142.923 cycles
LLC RQ	ACCESS:     174151	FORWARD:          0	MERGED:          0	TO_CACHE:     174150
LLC WQ	ACCESS:      37014	FORWARD:          1	MERGED:          0	TO_CACHE:      37014
LLC PQ	ACCESS:     193949	FORWARD:          0	MERGED:          0	TO_CACHE:     193949

LLC Dense regions hint to LLC: 0

RAW hits: 1079860
Loads Generated: 12289536
Loads sent to L1D: 11209671
Stores Generated: 6759292
Stores sent to L1D: 6759297
Major fault: 0 Minor fault: 6256
Allocated PAGES: 6256
I-Shadow cache 408 bytes
Touched + WorthPF tables 6144 bytes 
MMA filter 174 bytes 
FNL filter 272 bytes 
TOTAL PREFETCHER STORAGE SIZE: 25174 bytes
CPU 0 L1I next line prefetcher final stats

stream: 
stream:times selected: 42903
stream:pref_filled: 9678
stream:pref_useful: 933
stream:pref_late: 995
stream:misses: 700
stream:misses_by_poll: 0

CS: 
CS:times selected: 6574
CS:pref_filled: 4208
CS:pref_useful: 3594
CS:pref_late: 174
CS:misses: 331
CS:misses_by_poll: 0

CPLX: 
CPLX:times selected: 35870
CPLX:pref_filled: 12373
CPLX:pref_useful: 5996
CPLX:pref_late: 298
CPLX:misses: 3866
CPLX:misses_by_poll: 11

NL_L1: 
NL:times selected: 812
NL:pref_filled: 81
NL:pref_useful: 3
NL:pref_late: 0
NL:misses: 19
NL:misses_by_poll: 0

total selections: 86159
total_filled: 25271
total_useful: 10360
total_late: 1767
total_polluted: 11
total_misses_after_warmup: 40039
conflicts: 132146
Degree Incremented Times: 2969
Degree Decremented Times: 2006

L1 IP Table Write Accesses: 274720
L1 IP Table Read Accesses: 142574
L1 RST Write Accesses: 42556
L1 RST Read Accesses: 85112
L1 CSPT Write Accesses: 42556
L1 CSPT Read Accesses: 138995
L1 RR Filter Tag Write Accesses: 36927
L1 RR Filter Tag Read Accesses: 2861553
L1 IP Table Tag Write Accesses: 414385
L1 IP Table Tag Read Accesses: 414385
L1 RST Tag Write Accesses: 0
L1 RST Tag Read Accesses: 342270
L1 RR Filter Write Accesses: 0
L1 RR Filter Read Accesses: 103567
test: 8478

DRAM Statistics
 CHANNEL 0
 RQ ROW_BUFFER_HIT:      11268  ROW_BUFFER_MISS:      24862
 DBUS_CONGESTED:         13
 WQ ROW_BUFFER_HIT:        737  ROW_BUFFER_MISS:       2323  FULL:          0

 AVG_CONGESTED_CYCLE: 4
 All warmup complete: 2
Channel 0 Bank busy for read cycles: 0
Channel 0 Bank busy for write cycles: 0
Channel 0
Rank 0
0banks busy for read cycles: 76714932
0banks busy for write cycles: 1961
1banks busy for read cycles: 2453583
1banks busy for write cycles: 506724
2banks busy for read cycles: 519141
2banks busy for write cycles: 156936
3banks busy for read cycles: 153604
3banks busy for write cycles: 60394
4banks busy for read cycles: 37093
4banks busy for write cycles: 16599
5banks busy for read cycles: 11254
5banks busy for write cycles: 5449
6banks busy for read cycles: 5069
6banks busy for write cycles: 1838
7banks busy for read cycles: 5202
7banks busy for write cycles: 0
8banks busy for read cycles: 8578
8banks busy for write cycles: 0

CPU 0 Branch Prediction Accuracy: 99.7093% MPKI: 0.54708 Average ROB Occupancy at Mispredict: 91.1378
Branch types
NOT_BRANCH: 40590650 81.1813%
BRANCH_DIRECT_JUMP: 523489 1.04698%
BRANCH_INDIRECT: 166997 0.333994%
BRANCH_CONDITIONAL: 6365151 12.7303%
BRANCH_DIRECT_CALL: 989486 1.97897%
BRANCH_INDIRECT_CALL: 187202 0.374404%
BRANCH_RETURN: 1176691 2.35338%
BRANCH_OTHER: 0 0%

DRAM PAGES: 1048576
Allocated PAGES: 6256
