Initialize SIGNATURE TABLE
ST_SET: 1
ST_WAY: 256
ST_TAG_BIT: 16
ST_TAG_MASK: ffff

Initialize PATTERN TABLE
PT_SET: 512
PT_WAY: 4
SIG_DELTA_BIT: 7
C_SIG_BIT: 4
C_DELTA_BIT: 4

Initialize PREFETCH FILTER
FILTER_SET: 1024
MANA initialize 
tds: 2 tdm: 4
size MANA SINGLE: 25.5 KB
size MANA NULTIPLE: 9.875 KB
size HOBPT: 0.703125 KB
size SRQ: 0.0644531 KB
size SABs: 0.0402832 KB
size prefetch queue: 0.453125 KB
total: 36.636 KB

*** ChampSim Multicore Out-of-Order Simulator ***

Warmup Instructions: 50000000
Simulation Instructions: 50000000
Number of CPUs: 1
LLC sets: 2048
LLC ways: 16
Off-chip DRAM Size: 4096 MB Channels: 1 Width: 64-bit Data Rate: 6400 MT/s
CPU 0 runs ../IPC-traces//server_003.champsimtrace.xz
.xz
BTB has LRU replacement policy
ITLB has LRU replacement policy
DTLB has LRU replacement policy
STLB has LRU replacement policy
L1I has LRU replacement policy
L1D has LRU replacement policy
Initialize SRRIP state for L2C
Initialize DRRIP state for LLC
Heartbeat CPU 0 instructions: 10000002 cycles: 2870783 heartbeat IPC: 3.48337 cumulative IPC: 3.48337 (Simulation time: 0 hr 5 min 7 sec) 
Heartbeat CPU 0 instructions: 20000001 cycles: 5860211 heartbeat IPC: 3.34512 cumulative IPC: 3.41285 (Simulation time: 0 hr 8 min 26 sec) 
Heartbeat CPU 0 instructions: 30000001 cycles: 8717393 heartbeat IPC: 3.49995 cumulative IPC: 3.4414 (Simulation time: 0 hr 11 min 39 sec) 
Heartbeat CPU 0 instructions: 40000001 cycles: 11780338 heartbeat IPC: 3.26483 cumulative IPC: 3.39549 (Simulation time: 0 hr 14 min 50 sec) 
Heartbeat CPU 0 instructions: 50000002 cycles: 15076020 heartbeat IPC: 3.03427 cumulative IPC: 3.31653 (Simulation time: 0 hr 17 min 42 sec) 

Warmup complete CPU 0 instructions: 50000002 cycles: 15076020 (Simulation time: 0 hr 17 min 42 sec) 

Epoch all ip prefetch: 0, epoch id: 2
Epoch all ip prefetch: 1, epoch id: 3
Epoch all ip prefetch: 0, epoch id: 4
Epoch all ip prefetch: 0, epoch id: 5
Epoch all ip prefetch: 0, epoch id: 6
Epoch all ip prefetch: 0, epoch id: 7
Epoch all ip prefetch: 0, epoch id: 8
Epoch all ip prefetch: 0, epoch id: 9
Epoch all ip prefetch: 0, epoch id: 10
Epoch all ip prefetch: 0, epoch id: 11
Heartbeat CPU 0 instructions: 60000000 cycles: 34568172 heartbeat IPC: 0.513027 cumulative IPC: 0.513027 (Simulation time: 0 hr 21 min 40 sec) 
Epoch all ip prefetch: 0, epoch id: 12
Epoch all ip prefetch: 0, epoch id: 13
Epoch all ip prefetch: 0, epoch id: 14
Epoch all ip prefetch: 0, epoch id: 15
Epoch all ip prefetch: 0, epoch id: 16
Epoch all ip prefetch: 0, epoch id: 17
Epoch all ip prefetch: 0, epoch id: 18
Epoch all ip prefetch: 0, epoch id: 19
Epoch all ip prefetch: 0, epoch id: 20
Epoch all ip prefetch: 0, epoch id: 21
Heartbeat CPU 0 instructions: 70000003 cycles: 52722687 heartbeat IPC: 0.550827 cumulative IPC: 0.531256 (Simulation time: 0 hr 25 min 8 sec) 
Epoch all ip prefetch: 0, epoch id: 22
Epoch all ip prefetch: 0, epoch id: 23
Epoch all ip prefetch: 0, epoch id: 24
Epoch all ip prefetch: 0, epoch id: 25
Epoch all ip prefetch: 0, epoch id: 26
Epoch all ip prefetch: 0, epoch id: 27
Epoch all ip prefetch: 0, epoch id: 28
Epoch all ip prefetch: 0, epoch id: 29
Epoch all ip prefetch: 0, epoch id: 30
Epoch all ip prefetch: 0, epoch id: 31
Heartbeat CPU 0 instructions: 80000000 cycles: 71199824 heartbeat IPC: 0.541209 cumulative IPC: 0.534532 (Simulation time: 0 hr 28 min 41 sec) 
Epoch all ip prefetch: 0, epoch id: 32
Epoch all ip prefetch: 0, epoch id: 33
Epoch all ip prefetch: 0, epoch id: 34
Epoch all ip prefetch: 0, epoch id: 35
Epoch all ip prefetch: 0, epoch id: 36
Epoch all ip prefetch: 0, epoch id: 37
Epoch all ip prefetch: 0, epoch id: 38
Epoch all ip prefetch: 0, epoch id: 39
Epoch all ip prefetch: 0, epoch id: 40
Epoch all ip prefetch: 0, epoch id: 41
Heartbeat CPU 0 instructions: 90000001 cycles: 89286556 heartbeat IPC: 0.552892 cumulative IPC: 0.539007 (Simulation time: 0 hr 32 min 13 sec) 
Epoch all ip prefetch: 0, epoch id: 42
Epoch all ip prefetch: 0, epoch id: 43
Epoch all ip prefetch: 0, epoch id: 44
Epoch all ip prefetch: 0, epoch id: 45
Epoch all ip prefetch: 0, epoch id: 46
Epoch all ip prefetch: 0, epoch id: 47
Epoch all ip prefetch: 0, epoch id: 48
Epoch all ip prefetch: 0, epoch id: 49
Epoch all ip prefetch: 0, epoch id: 50
Epoch all ip prefetch: 0, epoch id: 51
Heartbeat CPU 0 instructions: 100000001 cycles: 108555997 heartbeat IPC: 0.518956 cumulative IPC: 0.534874 (Simulation time: 0 hr 35 min 37 sec) 
Finished CPU 0 instructions: 50000003 cycles: 93479978 cumulative IPC: 0.534874 (Simulation time: 0 hr 35 min 37 sec) 

ChampSim completed all CPUs

Region of Interest Statistics

CPU 0 cumulative IPC: 0.534874 instructions: 50000003 cycles: 93479978

CPU 0 Average Load ROB stall cycles: 4.60256
CPU 0 Fraction of times ROB stalled by Loads: 29.0972
CPU 0 Percentage of Load stall cycles in Total stall cycles: 53.651
CPU 0 NUM of IPS identified critical: 0

Average ROB occupancy Load Stall Begin: 43.5293
Average ROB occupancy Load Stall End: 52.1296
Min ROB occupancy Load Stall Begin: 1
Max ROB occupancy Load Stall Begin: 351
Min ROB occupancy Load Stall End: 1
Max ROB occupancy Load Stall End: 352
Average ROB occupancy Critical Load Stall Begin: -nan
Average ROB occupancy Critical Load Stall End: -nan
Min ROB occupancy Critical Load Stall Begin: 400
Max ROB occupancy Critical Load Stall Begin: 0
Min ROB occupancy Critical Load Stall End: 400
Max ROB occupancy Critical Load Stall End: 0
 ROB Load Stall Begin Bucket Count 0: 1558575
 ROB Load Stall End Bucket Count 0: 1377716
 ROB Critical Load Stall Begin Bucket Count 0: 0
 ROB Critical Load Stall End Bucket Count 0: 0
 ROB Load Stall Begin Bucket Count 1: 375712
 ROB Load Stall End Bucket Count 1: 499327
 ROB Critical Load Stall Begin Bucket Count 1: 0
 ROB Critical Load Stall End Bucket Count 1: 0
 ROB Load Stall Begin Bucket Count 2: 123271
 ROB Load Stall End Bucket Count 2: 161933
 ROB Critical Load Stall Begin Bucket Count 2: 0
 ROB Critical Load Stall End Bucket Count 2: 0
 ROB Load Stall Begin Bucket Count 3: 33838
 ROB Load Stall End Bucket Count 3: 45472
 ROB Critical Load Stall Begin Bucket Count 3: 0
 ROB Critical Load Stall End Bucket Count 3: 0
 ROB Load Stall Begin Bucket Count 4: 14969
 ROB Load Stall End Bucket Count 4: 18757
 ROB Critical Load Stall Begin Bucket Count 4: 0
 ROB Critical Load Stall End Bucket Count 4: 0
 ROB Load Stall Begin Bucket Count 5: 9149
 ROB Load Stall End Bucket Count 5: 10204
 ROB Critical Load Stall Begin Bucket Count 5: 0
 ROB Critical Load Stall End Bucket Count 5: 0
 ROB Load Stall Begin Bucket Count 6: 25611
 ROB Load Stall End Bucket Count 6: 27716
 ROB Critical Load Stall Begin Bucket Count 6: 0
 ROB Critical Load Stall End Bucket Count 6: 0
Threshold Modified: 1 times, factor: -1
Sturdy critical IP cache stats: 
 Unused entries: 96
Wobbly critical IP cache stats: 
 Unused entries: 192
ITLB TOTAL     ACCESS:   12753867  HIT:   12499269  MISS:     254598  HIT %:    98.0038  MISS %:    1.99624   MPKI: 5.09196
ITLB LOAD TRANSLATION ACCESS:    8292823  HIT:    8206930  MISS:      85893  HIT %:    98.9642  MISS %:    1.03575   MPKI: 1.71786
ITLB TRANSLATION FROM L1D PREFETCHER ACCESS:    4461044  HIT:    4292339  MISS:     168705  HIT %:    96.2183  MISS %:    3.78174   MPKI: 3.3741
ITLB AVERAGE MISS LATENCY: 1.36898e+06 cycles
ITLB RQ	ACCESS:   23187095	FORWARD:          0	MERGED:   10328401	TO_CACHE:   12858694

DTLB TOTAL     ACCESS:   10663665  HIT:   10233259  MISS:     430406  HIT %:    95.9638  MISS %:    4.03619   MPKI: 8.60812
DTLB LOAD TRANSLATION ACCESS:   10663665  HIT:   10233259  MISS:     430406  HIT %:    95.9638  MISS %:    4.03619   MPKI: 8.60812
DTLB AVERAGE MISS LATENCY: 17.0432 cycles
DTLB RQ	ACCESS:   13182771	FORWARD:          0	MERGED:    2490701	TO_CACHE:   10692070

STLB TOTAL     ACCESS:     685004  HIT:     604442  MISS:      80562  HIT %:    88.2392  MISS %:    11.7608   MPKI: 1.61124
STLB LOAD TRANSLATION ACCESS:     510589  HIT:     437634  MISS:      72955  HIT %:    85.7116  MISS %:    14.2884   MPKI: 1.4591
STLB TRANSLATION FROM L1D PREFETCHER ACCESS:     174415  HIT:     166808  MISS:       7607  HIT %:    95.6386  MISS %:    4.36144   MPKI: 0.15214
STLB AVERAGE MISS LATENCY: 59.5394 cycles
STLB RQ	ACCESS:     743445	FORWARD:          0	MERGED:          0	TO_CACHE:     743445

STLB Hit, L1D data hit: 0
STLB Hit, L2C data hit: 0
STLB Hit, LLC data hit: 0
STLB Hit, LLC data miss: 0
STLB STLB hints to L2: 0
L1D TOTAL     ACCESS:   12946828  HIT:   12218776  MISS:     728052  HIT %:    94.3766  MISS %:     5.6234   MPKI: 14.561
L1D LOAD      ACCESS:    8392129  HIT:    7791686  MISS:     600443  HIT %:    92.8452  MISS %:    7.15484   MPKI: 12.0089
L1D RFO       ACCESS:    4554699  HIT:    4427090  MISS:     127609  HIT %:    97.1983  MISS %:     2.8017   MPKI: 2.55218
L1D AVERAGE MISS LATENCY: 55.0953 cycles
L1D RQ	ACCESS:   12698658	FORWARD:          0	MERGED:    4161834	TO_CACHE:    8452256
L1D WQ	ACCESS:    4823332	FORWARD:      84568	MERGED:      92817	TO_CACHE:    4730515

L1D UNIQUE REGIONS ACCESSED: 0
L1D REGIONS CONFLICTS: 0
L1D Cross Page Prefetch Requests: 0
L1D Same Page Prefetch Requests: 0
L1D ROI Sum of L1D PQ occupancy: 0
L1D PREFETCHES PUSHED FROM L2C: 0
L1I TOTAL     ACCESS:   22811246  HIT:   21527733  MISS:    1283513  HIT %:    94.3733  MISS %:    5.62667   MPKI: 25.6703
L1I LOAD      ACCESS:    9890294  HIT:    9477731  MISS:     412563  HIT %:    95.8286  MISS %:    4.17139   MPKI: 8.25126
L1I PREFETCH  ACCESS:   12920952  HIT:   12050002  MISS:     870950  HIT %:    93.2594  MISS %:     6.7406   MPKI: 17.419
L1I PREFETCH  REQUESTED:   16154451  ISSUED:   14898402  USEFUL:     521221  USELESS:     349611
L1I USEFUL LOAD PREFETCHES:     521221 PREFETCH ISSUED TO LOWER LEVEL:     913724  ACCURACY: 57.0436
L1I TIMELY PREFETCHES:     521221 LATE PREFETCHES: 42768 DROPPED PREFETCHES: 58937
L1I AVERAGE MISS LATENCY: 2.2147e+06 cycles
L1I RQ	ACCESS:   14326168	FORWARD:          0	MERGED:    4348198	TO_CACHE:    9977970
L1I PQ	ACCESS:   14898402	FORWARD:          0	MERGED:    1689277	TO_CACHE:   13209125

BTB TOTAL     ACCESS:    6374193  HIT:    5543383  MISS:     830810  HIT %:     86.966  MISS %:     13.034   MPKI: 16.6162
BTB BRANCH_DIRECT_JUMP	ACCESS:     497931  HIT:     456455  MISS:      41476
BTB BRANCH_INDIRECT	ACCESS:     130588  HIT:     102079  MISS:      28509
BTB BRANCH_CONDITIONAL	ACCESS:    3697319  HIT:    3536512  MISS:     160807
BTB BRANCH_DIRECT_CALL	ACCESS:     625810  HIT:     549575  MISS:      76235
BTB BRANCH_INDIRECT_CALL	ACCESS:     389790  HIT:     241922  MISS:     147868
BTB BRANCH_RETURN	ACCESS:    1032755  HIT:     656840  MISS:     375915
BTB BRANCH_OTHER ACCESS:          0  HIT:          0  MISS:          0

L2C TOTAL     ACCESS:    2841043  HIT:    2029788  MISS:     811255  HIT %:    71.4452  MISS %:    28.5548   MPKI: 16.2251
L2C LOAD      ACCESS:     970216  HIT:     496715  MISS:     473501  HIT %:    51.1963  MISS %:    48.8037   MPKI: 9.47002
L2C DATA LOAD MPKI: 5.64234
L2C INSTRUCTION LOAD MPKI: 3.82768
L2C RFO       ACCESS:     127593  HIT:      47653  MISS:      79940  HIT %:    37.3477  MISS %:    62.6523   MPKI: 1.5988
L2C PREFETCH  ACCESS:    1261817  HIT:    1062229  MISS:     199588  HIT %:    84.1825  MISS %:    15.8175   MPKI: 3.99176
L2C DATA PREFETCH MPKI: 0.12948
L2C INSTRUCTION PREFETCH MPKI: 3.86228
L2C WRITEBACK ACCESS:     266831  HIT:     251142  MISS:      15689  HIT %:    94.1202  MISS %:    5.87975   MPKI: 0.31378
L2C LOAD TRANSLATION ACCESS:      92527  HIT:      53322  MISS:      39205  HIT %:    57.6286  MISS %:    42.3714   MPKI: 0.7841
L2C TRANSLATION FROM L1D PREFETCHER ACCESS:     122059  HIT:     118727  MISS:       3332  HIT %:    97.2702  MISS %:    2.72983   MPKI: 0.06664
L2C PREFETCH  REQUESTED:    1358397  ISSUED:    1358390  USEFUL:      22661  USELESS:     179181
L2C USEFUL LOAD PREFETCHES:      22661 PREFETCH ISSUED TO LOWER LEVEL:     658472  ACCURACY: 3.44145
L2C TIMELY PREFETCHES:      22661 LATE PREFETCHES: 765 DROPPED PREFETCHES: 0
L2C AVERAGE MISS LATENCY: 62.8837 cycles
L2C RQ	ACCESS:    1312434	FORWARD:          0	MERGED:          0	TO_CACHE:    1312396
L2C WQ	ACCESS:     266831	FORWARD:         41	MERGED:          0	TO_CACHE:     266831
L2C PQ	ACCESS:    2272108	FORWARD:          0	MERGED:     532661	TO_CACHE:    1739444

L2C Instructions Evicting Data179857
L2C Translations Evicting Data19974
L2C Data Evicting Data180371
L2C Instructions Evicting Instructions184436
L2C Translations Evicting Instructions20476
L2C Data Evicting Instructions169060
L2C Instructions Evicting Translations20205
L2C Translations Evicting Translations2087
L2C Data Evicting Translations19100
L2C Dense regions hint from L2: 0
PSCL5 TOTAL     ACCESS:     139003  HIT:     139003  MISS:          0  HIT %:        100  MISS %:          0   MPKI: 0
PSCL5 LOAD TRANSLATION ACCESS:      72956  HIT:      72956  MISS:          0  HIT %:        100  MISS %:          0   MPKI: 0
PSCL5 TRANSLATION FROM L1D PREFETCHER ACCESS:      66047  HIT:      66047  MISS:          0  HIT %:        100  MISS %:          0   MPKI: 0

PSCL4 TOTAL     ACCESS:     134737  HIT:     134584  MISS:        153  HIT %:    99.8864  MISS %:   0.113555   MPKI: 0.00306
PSCL4 LOAD TRANSLATION ACCESS:      70369  HIT:      70216  MISS:        153  HIT %:    99.7826  MISS %:   0.217425   MPKI: 0.00306
PSCL4 TRANSLATION FROM L1D PREFETCHER ACCESS:      64368  HIT:      64368  MISS:          0  HIT %:        100  MISS %:          0   MPKI: 0

PSCL3 TOTAL     ACCESS:     137975  HIT:     137463  MISS:        512  HIT %:    99.6289  MISS %:   0.371082   MPKI: 0.01024
PSCL3 LOAD TRANSLATION ACCESS:      72579  HIT:      72067  MISS:        512  HIT %:    99.2946  MISS %:   0.705438   MPKI: 0.01024
PSCL3 TRANSLATION FROM L1D PREFETCHER ACCESS:      65396  HIT:      65396  MISS:          0  HIT %:        100  MISS %:          0   MPKI: 0

PSCL2 TOTAL     ACCESS:      85226  HIT:      64742  MISS:      20484  HIT %:    75.9651  MISS %:    24.0349   MPKI: 0.40968
PSCL2 LOAD TRANSLATION ACCESS:      74437  HIT:      53953  MISS:      20484  HIT %:    72.4814  MISS %:    27.5186   MPKI: 0.40968
PSCL2 TRANSLATION FROM L1D PREFETCHER ACCESS:      10789  HIT:      10789  MISS:          0  HIT %:        100  MISS %:          0   MPKI: 0

LLC TOTAL     ACCESS:    1385316  HIT:    1147057  MISS:     238259  HIT %:    82.8011  MISS %:    17.1989   MPKI: 4.76518
LLC LOAD      ACCESS:     472735  HIT:     382414  MISS:      90321  HIT %:    80.8939  MISS %:    19.1061   MPKI: 1.80642
LLC RFO       ACCESS:      79940  HIT:      28962  MISS:      50978  HIT %:    36.2297  MISS %:    63.7703   MPKI: 1.01956
LLC PREFETCH  ACCESS:     647002  HIT:     563497  MISS:      83505  HIT %:    87.0935  MISS %:    12.9065   MPKI: 1.6701
LLC WRITEBACK ACCESS:     143102  HIT:     135471  MISS:       7631  HIT %:    94.6674  MISS %:    5.33256   MPKI: 0.15262
LLC LOAD TRANSLATION ACCESS:      39205  HIT:      33597  MISS:       5608  HIT %:    85.6957  MISS %:    14.3043   MPKI: 0.11216
LLC TRANSLATION FROM L1D PREFETCHER ACCESS:       3332  HIT:       3116  MISS:        216  HIT %:    93.5174  MISS %:    6.48259   MPKI: 0.00432
LLC AVERAGE MISS LATENCY: 164.358 cycles
LLC RQ	ACCESS:     595213	FORWARD:          0	MERGED:          0	TO_CACHE:     595212
LLC WQ	ACCESS:     143102	FORWARD:          2	MERGED:          0	TO_CACHE:     143102
LLC PQ	ACCESS:     658472	FORWARD:          0	MERGED:       4208	TO_CACHE:     654263

LLC Dense regions hint to LLC: 0

RAW hits: 992383
Loads Generated: 13691041
Loads sent to L1D: 12698658
Stores Generated: 4823334
Stores sent to L1D: 4823332
Major fault: 0 Minor fault: 8067
Allocated PAGES: 8067



Printing Logs
statHeadFound: 2910587
statHeadMissing: 2332247
statStreamBufferHit: 10572508
statPrefetchEntryFound: 10162497
statCompactorMatch: 13362060
statStreamTrackerLookup: 15815342
statRecord: 2453282
statGetPointer: 5242834
statEnqueuePrefetch: 27826776
statPrefetchQueueIsFull: 623
StreamBufferHitRate: 0.668497
Regions' size: 12067
next_region_correct: 1596460
next_region_wrong: 844747
next_region_correct_prediction: 0.653963
statStreamBufferLookups: 158153420
statL1iLookups: 222614208
statCompactorLookups: 253045472
------------------
Depth Distribution
------------------
depth 0: 0
depth 1: 2649801
depth 2: 731575
depth 3: 82975
depth 4: 7054
depth 5: 2771
depth 6: 1066
depth 7: 263
depth 8: 74
depth 9: 2
depth 10: 2
depth 11: 1
depth 12: 1
depth 13: 0
depth 14: 0
depth 15: 0
depth 16: 0
depth 17: 0
depth 18: 0
depth 19: 0
depth 20: 0
depth 21: 0
depth 22: 0
depth 23: 0
depth 24: 0
depth 25: 0
depth 26: 0
depth 27: 0
depth 28: 0
depth 29: 0
Total: 3475585
-----------------------------
-----------------------------
	Captured at Filter
-----------------------------
depth 0: 0
depth 1: 21738
depth 2: 7304
depth 3: 802
depth 4: 143
depth 5: 63
depth 6: 10
depth 7: 2
depth 8: 1
depth 9: 0
depth 10: 0
depth 11: 0
depth 12: 0
depth 13: 0
depth 14: 0
depth 15: 0
depth 16: 0
depth 17: 0
depth 18: 0
depth 19: 0
depth 20: 0
depth 21: 0
depth 22: 0
depth 23: 0
depth 24: 0
depth 25: 0
depth 26: 0
depth 27: 0
depth 28: 0
depth 29: 0
-----------------------------
-----------------------------
		Lost at Page
-----------------------------
depth 0: 0
depth 1: 45428
depth 2: 23054
depth 3: 4221
depth 4: 453
depth 5: 259
depth 6: 114
depth 7: 39
depth 8: 8
depth 9: 0
depth 10: 0
depth 11: 0
depth 12: 0
depth 13: 0
depth 14: 0
depth 15: 0
depth 16: 0
depth 17: 0
depth 18: 0
depth 19: 0
depth 20: 0
depth 21: 0
depth 22: 0
depth 23: 0
depth 24: 0
depth 25: 0
depth 26: 0
depth 27: 0
depth 28: 0
depth 29: 0
-----------------------------
-----------------------------
	Lost due to PQ Size
-----------------------------
20883
-----------------------------
ST read accesses: 703202302
ST write accesses: 87728027
PT read accesses: 17710687
PT write accesses: 1662666
FILTER read accesses: 3682088
FILTER write accesses: 860187
GHR read accesses: 2131124
GHR write accesses: 27354
GHR counter read accesses: 14547274
GHR counter write accesses: 1543211

DRAM Statistics
 CHANNEL 0
 RQ ROW_BUFFER_HIT:      44220  ROW_BUFFER_MISS:     186404
 DBUS_CONGESTED:        157
 WQ ROW_BUFFER_HIT:      23694  ROW_BUFFER_MISS:      73331  FULL:          0

 AVG_CONGESTED_CYCLE: 4

CPU 0 Branch Prediction Accuracy: 95.439% MPKI: 9.02706 Average ROB Occupancy at Mispredict: 38.1391
Branch types
NOT_BRANCH: 40104097 80.2082%
BRANCH_DIRECT_JUMP: 497931 0.995862%
BRANCH_INDIRECT: 130588 0.261176%
BRANCH_CONDITIONAL: 7219027 14.4381%
BRANCH_DIRECT_CALL: 625810 1.25162%
BRANCH_INDIRECT_CALL: 389790 0.77958%
BRANCH_RETURN: 1032755 2.06551%
BRANCH_OTHER: 0 0%

DRAM PAGES: 1048576
Allocated PAGES: 8067
