Initialize SIGNATURE TABLE
ST_SET: 1
ST_WAY: 16
ST_TAG_BIT: 16
ST_TAG_MASK: ffff

Initialize PATTERN TABLE
PT_SET: 16
PT_WAY: 4
SIG_DELTA_BIT: 7
C_SIG_BIT: 4
C_DELTA_BIT: 4

Initialize PREFETCH FILTER
FILTER_SET: 1024

Initialize PERCEPTRON
PERC_ENTRIES: 4096
PERC_FEATURES: 9

*** ChampSim Multicore Out-of-Order Simulator ***

Warmup Instructions: 50000000
Simulation Instructions: 50000000
Number of CPUs: 1
LLC sets: 2048
LLC ways: 16
Off-chip DRAM Size: 4096 MB Channels: 1 Width: 64-bit Data Rate: 6400 MT/s
CPU 0 runs ../IPC-traces//server_026.champsimtrace.xz
.xz
NUM_OF_IPS_IN_CRITICAL_IP_TRAINING: 64
NUM_OF_CRITICAL_IP_TRAINING_TABLE_WAYS: 2
NUM_OF_CRITICAL_IP_TRAINING_TABLE_SETS: 32
WOBBLY_CRITICAL_IP_CACHE_SETS: 32
WOBBLY_CRITICAL_IP_CACHE_WAYS: 4
BTB has LRU replacement policy
ITLB has LRU replacement policy
DTLB has LRU replacement policy
STLB has LRU replacement policy
CPU 0 L1I next line prefetcher
L1I has LRU replacement policy
L1D has LRU replacement policy
PERC_ENTRIES: 4096
Initialize SRRIP state for L2C
Initialize DRRIP state for LLC
Heartbeat CPU 0 instructions: 10000000 cycles: 2914997 heartbeat IPC: 3.43054 cumulative IPC: 3.43054 (Simulation time: 0 hr 3 min 18 sec) 
Heartbeat CPU 0 instructions: 20000002 cycles: 5824343 heartbeat IPC: 3.4372 cumulative IPC: 3.43386 (Simulation time: 0 hr 6 min 6 sec) 
Heartbeat CPU 0 instructions: 30000003 cycles: 8736592 heartbeat IPC: 3.43377 cumulative IPC: 3.43383 (Simulation time: 0 hr 8 min 52 sec) 
Heartbeat CPU 0 instructions: 40000001 cycles: 11649111 heartbeat IPC: 3.43345 cumulative IPC: 3.43374 (Simulation time: 0 hr 11 min 17 sec) 
Heartbeat CPU 0 instructions: 50000000 cycles: 14555152 heartbeat IPC: 3.44111 cumulative IPC: 3.43521 (Simulation time: 0 hr 13 min 32 sec) 

Warmup complete CPU 0 instructions: 50000004 cycles: 14555153 (Simulation time: 0 hr 13 min 32 sec) 

% increase in all ip prefetch 428.719
% increase in all ip prefetch 3.22996
*** Reached end of trace for Core: 0 Repeating trace: ../IPC-traces//server_026.champsimtrace.xz
Heartbeat CPU 0 instructions: 60000000 cycles: 31231615 heartbeat IPC: 0.599648 cumulative IPC: 0.599647 (Simulation time: 0 hr 16 min 15 sec) 
Heartbeat CPU 0 instructions: 70000001 cycles: 47709473 heartbeat IPC: 0.606875 cumulative IPC: 0.60324 (Simulation time: 0 hr 18 min 58 sec) 
Heartbeat CPU 0 instructions: 80000003 cycles: 64300621 heartbeat IPC: 0.602731 cumulative IPC: 0.60307 (Simulation time: 0 hr 21 min 39 sec) 
Heartbeat CPU 0 instructions: 90000002 cycles: 80752174 heartbeat IPC: 0.607845 cumulative IPC: 0.604257 (Simulation time: 0 hr 24 min 20 sec) 
Heartbeat CPU 0 instructions: 100000000 cycles: 97270469 heartbeat IPC: 0.605389 cumulative IPC: 0.604483 (Simulation time: 0 hr 26 min 55 sec) 
Finished CPU 0 instructions: 50000000 cycles: 82715317 cumulative IPC: 0.604483 (Simulation time: 0 hr 26 min 55 sec) 

ChampSim completed all CPUs

Region of Interest Statistics

CPU 0 cumulative IPC: 0.604483 instructions: 50000000 cycles: 82715317

CPU 0 Average Load ROB stall cycles: 2.01051e+07
CPU 0 Fraction of times ROB stalled by Loads: 35.9116
CPU 0 Percentage of Load stall cycles in Total stall cycles: 2.81984e+08
Issued all: 28314523
Issued LT all: 22525040
rob_not_full_when_issued_lt_all: 22072186
Issued LT one: 17488944
rob_not_full_when_issued_lt_one: 17091851
critical_ip_candidate_identification_operations: 6943704
critical_ip_candidate_identification_operation_per_cycle: 0.083947
 Total stall cycles: 68930258
 Total load stall cycles: 194372073992112
Unique Load IPs: 13263
CPU 0 NUM of IPS identified critical: 3
CPU 0 Num of Load IPs stalling ROB: 11881
Threshold modification factor: -1
Max PIST entries: 64
Min PIST entries: 0
Avg PIST entries: 32
Trouble in retire width: 0.90676
MaC = Marked as critical.
lt_50_percent_before_Mac: 3
gt_90_percent_before_Mac: 0
gt_75_percent_before_Mac: 0
gt_50_percent_before_Mac: 0
stall_proportion_bin_same_before_after: 0
stall_proportion_bin_lower_before_after: 0
stall_proportion_bin_upper_before_after: 0
average_stall_proportion_before: 0.0553711
average_stall_proportion_after: 0.0556127
Critical IP stalls, total frequency: 112896
Non-critical IP stalls, total frequency: 3358956
Total Freq all stalling IPs: 3471852
Critical_IP_Detector_Accuracy_70: 1
Critical_IP_Detector_Accuracy_80: 1
Critical_IP_Detector_Accuracy_90: 1
Critical_IP_Detector_Coverage_70: 0.00198413
Critical_IP_Detector_Coverage_80: 0.00133333
Critical_IP_Detector_Coverage_90: 0.000861326
stat_90_percent_critical_ip_stalls_freq: 3124778
stat_90_percent_non_critical_ip_stalls_freq: 347074
AVERAGE_ROB_Occupancy_90_Percent_Critical_IP_Stalls: 48.1746
AVERAGE_ROB_Occupancy_90_Percent_Non_Critical_IP_Stalls: 27.1088
Critical_IP_ROB_Stalls_Bucket_0: 2400
Non-critical_IP_ROB_Stalls_Bucket_0: 2415268
Critical_IP_ROB_Stalls_Bucket_1: 51142
Non-critical_IP_ROB_Stalls_Bucket_1: 643039
Critical_IP_ROB_Stalls_Bucket_2: 24117
Non-critical_IP_ROB_Stalls_Bucket_2: 224217
Critical_IP_ROB_Stalls_Bucket_3: 8336
Non-critical_IP_ROB_Stalls_Bucket_3: 49376
Critical_IP_ROB_Stalls_Bucket_4: 5694
Non-critical_IP_ROB_Stalls_Bucket_4: 14750
Critical_IP_ROB_Stalls_Bucket_5: 5056
Non-critical_IP_ROB_Stalls_Bucket_5: 6450
Critical_IP_ROB_Stalls_Bucket_6: 16151
Non-critical_IP_ROB_Stalls_Bucket_6: 5856
0 => IPs accounting for >50 percent of stalls, 1 => 55, 2 => 60, 3 => 65 and so on till 90.
percent50: 50.025 num IPs:  533
percent55: 55.0009 num IPs: 747
percent60: 60.0091 num IPs: 987
percent65: 65.0063 num IPs: 1231
percent70: 70.0051 num IPs: 1512
percent75: 75.0053 num IPs: 1869
percent80: 80.0086 num IPs: 2250
percent85: 85.0029 num IPs: 2785
percent90: 90.0021 num IPs: 3483
Critical_ROB_Stalls_Percent_0_Bucket_0: 989625
Non-critical_ROB_Stalls_Percent_0_Bucket_0: 1428043
Critical_ROB_Stalls_Percent_0_Bucket_1: 459412
Non-critical_ROB_Stalls_Percent_0_Bucket_1: 234769
Critical_ROB_Stalls_Percent_0_Bucket_2: 188596
Non-critical_ROB_Stalls_Percent_0_Bucket_2: 59738
Critical_ROB_Stalls_Percent_0_Bucket_3: 50414
Non-critical_ROB_Stalls_Percent_0_Bucket_3: 7298
Critical_ROB_Stalls_Percent_0_Bucket_4: 17949
Non-critical_ROB_Stalls_Percent_0_Bucket_4: 2495
Critical_ROB_Stalls_Percent_0_Bucket_5: 10320
Non-critical_ROB_Stalls_Percent_0_Bucket_5: 1186
Critical_ROB_Stalls_Percent_0_Bucket_6: 20480
Non-critical_ROB_Stalls_Percent_0_Bucket_6: 1527
Critical_ROB_Stalls_Percent_1_Bucket_0: 1115649
Non-critical_ROB_Stalls_Percent_1_Bucket_0: 1302019
Critical_ROB_Stalls_Percent_1_Bucket_1: 493205
Non-critical_ROB_Stalls_Percent_1_Bucket_1: 200976
Critical_ROB_Stalls_Percent_1_Bucket_2: 199750
Non-critical_ROB_Stalls_Percent_1_Bucket_2: 48584
Critical_ROB_Stalls_Percent_1_Bucket_3: 51457
Non-critical_ROB_Stalls_Percent_1_Bucket_3: 6255
Critical_ROB_Stalls_Percent_1_Bucket_4: 18497
Non-critical_ROB_Stalls_Percent_1_Bucket_4: 1947
Critical_ROB_Stalls_Percent_1_Bucket_5: 10426
Non-critical_ROB_Stalls_Percent_1_Bucket_5: 1080
Critical_ROB_Stalls_Percent_1_Bucket_6: 20569
Non-critical_ROB_Stalls_Percent_1_Bucket_6: 1438
Critical_ROB_Stalls_Percent_2_Bucket_0: 1234323
Non-critical_ROB_Stalls_Percent_2_Bucket_0: 1183345
Critical_ROB_Stalls_Percent_2_Bucket_1: 535235
Non-critical_ROB_Stalls_Percent_2_Bucket_1: 158946
Critical_ROB_Stalls_Percent_2_Bucket_2: 211311
Non-critical_ROB_Stalls_Percent_2_Bucket_2: 37023
Critical_ROB_Stalls_Percent_2_Bucket_3: 53056
Non-critical_ROB_Stalls_Percent_2_Bucket_3: 4656
Critical_ROB_Stalls_Percent_2_Bucket_4: 18504
Non-critical_ROB_Stalls_Percent_2_Bucket_4: 1940
Critical_ROB_Stalls_Percent_2_Bucket_5: 10427
Non-critical_ROB_Stalls_Percent_2_Bucket_5: 1079
Critical_ROB_Stalls_Percent_2_Bucket_6: 20569
Non-critical_ROB_Stalls_Percent_2_Bucket_6: 1438
Critical_ROB_Stalls_Percent_3_Bucket_0: 1372937
Non-critical_ROB_Stalls_Percent_3_Bucket_0: 1044731
Critical_ROB_Stalls_Percent_3_Bucket_1: 562186
Non-critical_ROB_Stalls_Percent_3_Bucket_1: 131995
Critical_ROB_Stalls_Percent_3_Bucket_2: 218435
Non-critical_ROB_Stalls_Percent_3_Bucket_2: 29899
Critical_ROB_Stalls_Percent_3_Bucket_3: 53639
Non-critical_ROB_Stalls_Percent_3_Bucket_3: 4073
Critical_ROB_Stalls_Percent_3_Bucket_4: 18682
Non-critical_ROB_Stalls_Percent_3_Bucket_4: 1762
Critical_ROB_Stalls_Percent_3_Bucket_5: 10465
Non-critical_ROB_Stalls_Percent_3_Bucket_5: 1041
Critical_ROB_Stalls_Percent_3_Bucket_6: 20579
Non-critical_ROB_Stalls_Percent_3_Bucket_6: 1428
Critical_ROB_Stalls_Percent_4_Bucket_0: 1517185
Non-critical_ROB_Stalls_Percent_4_Bucket_0: 900483
Critical_ROB_Stalls_Percent_4_Bucket_1: 586006
Non-critical_ROB_Stalls_Percent_4_Bucket_1: 108175
Critical_ROB_Stalls_Percent_4_Bucket_2: 222899
Non-critical_ROB_Stalls_Percent_4_Bucket_2: 25435
Critical_ROB_Stalls_Percent_4_Bucket_3: 54291
Non-critical_ROB_Stalls_Percent_4_Bucket_3: 3421
Critical_ROB_Stalls_Percent_4_Bucket_4: 18931
Non-critical_ROB_Stalls_Percent_4_Bucket_4: 1513
Critical_ROB_Stalls_Percent_4_Bucket_5: 10526
Non-critical_ROB_Stalls_Percent_4_Bucket_5: 980
Critical_ROB_Stalls_Percent_4_Bucket_6: 20634
Non-critical_ROB_Stalls_Percent_4_Bucket_6: 1373
Critical_ROB_Stalls_Percent_5_Bucket_0: 1656675
Non-critical_ROB_Stalls_Percent_5_Bucket_0: 760993
Critical_ROB_Stalls_Percent_5_Bucket_1: 611618
Non-critical_ROB_Stalls_Percent_5_Bucket_1: 82563
Critical_ROB_Stalls_Percent_5_Bucket_2: 231029
Non-critical_ROB_Stalls_Percent_5_Bucket_2: 17305
Critical_ROB_Stalls_Percent_5_Bucket_3: 54605
Non-critical_ROB_Stalls_Percent_5_Bucket_3: 3107
Critical_ROB_Stalls_Percent_5_Bucket_4: 18969
Non-critical_ROB_Stalls_Percent_5_Bucket_4: 1475
Critical_ROB_Stalls_Percent_5_Bucket_5: 10534
Non-critical_ROB_Stalls_Percent_5_Bucket_5: 972
Critical_ROB_Stalls_Percent_5_Bucket_6: 20637
Non-critical_ROB_Stalls_Percent_5_Bucket_6: 1370
Critical_ROB_Stalls_Percent_6_Bucket_0: 1805346
Non-critical_ROB_Stalls_Percent_6_Bucket_0: 612322
Critical_ROB_Stalls_Percent_6_Bucket_1: 632050
Non-critical_ROB_Stalls_Percent_6_Bucket_1: 62131
Critical_ROB_Stalls_Percent_6_Bucket_2: 235271
Non-critical_ROB_Stalls_Percent_6_Bucket_2: 13063
Critical_ROB_Stalls_Percent_6_Bucket_3: 54897
Non-critical_ROB_Stalls_Percent_6_Bucket_3: 2815
Critical_ROB_Stalls_Percent_6_Bucket_4: 19027
Non-critical_ROB_Stalls_Percent_6_Bucket_4: 1417
Critical_ROB_Stalls_Percent_6_Bucket_5: 10547
Non-critical_ROB_Stalls_Percent_6_Bucket_5: 959
Critical_ROB_Stalls_Percent_6_Bucket_6: 20640
Non-critical_ROB_Stalls_Percent_6_Bucket_6: 1367
Critical_ROB_Stalls_Percent_7_Bucket_0: 1955101
Non-critical_ROB_Stalls_Percent_7_Bucket_0: 462567
Critical_ROB_Stalls_Percent_7_Bucket_1: 650404
Non-critical_ROB_Stalls_Percent_7_Bucket_1: 43777
Critical_ROB_Stalls_Percent_7_Bucket_2: 238749
Non-critical_ROB_Stalls_Percent_7_Bucket_2: 9585
Critical_ROB_Stalls_Percent_7_Bucket_3: 55821
Non-critical_ROB_Stalls_Percent_7_Bucket_3: 1891
Critical_ROB_Stalls_Percent_7_Bucket_4: 19425
Non-critical_ROB_Stalls_Percent_7_Bucket_4: 1019
Critical_ROB_Stalls_Percent_7_Bucket_5: 10805
Non-critical_ROB_Stalls_Percent_7_Bucket_5: 701
Critical_ROB_Stalls_Percent_7_Bucket_6: 20866
Non-critical_ROB_Stalls_Percent_7_Bucket_6: 1141
Critical_ROB_Stalls_Percent_8_Bucket_0: 2113281
Non-critical_ROB_Stalls_Percent_8_Bucket_0: 304387
Critical_ROB_Stalls_Percent_8_Bucket_1: 663027
Non-critical_ROB_Stalls_Percent_8_Bucket_1: 31154
Critical_ROB_Stalls_Percent_8_Bucket_2: 241244
Non-critical_ROB_Stalls_Percent_8_Bucket_2: 7090
Critical_ROB_Stalls_Percent_8_Bucket_3: 55983
Non-critical_ROB_Stalls_Percent_8_Bucket_3: 1729
Critical_ROB_Stalls_Percent_8_Bucket_4: 19471
Non-critical_ROB_Stalls_Percent_8_Bucket_4: 973
Critical_ROB_Stalls_Percent_8_Bucket_5: 10849
Non-critical_ROB_Stalls_Percent_8_Bucket_5: 657
Critical_ROB_Stalls_Percent_8_Bucket_6: 20923
Non-critical_ROB_Stalls_Percent_8_Bucket_6: 1084
Average ROB occupancy Load Stall Begin: 37.8709
Average ROB occupancy Load Stall End: 46.0687
Min ROB occupancy Load Stall Begin: 1
Max ROB occupancy Load Stall Begin: 352
Min ROB occupancy Load Stall End: 1
Max ROB occupancy Load Stall End: 352
Average ROB occupancy Critical Load Stall Begin: 142.18
Average ROB occupancy Critical Load Stall End: 153.219
Min ROB occupancy Critical Load Stall Begin: 3
Max ROB occupancy Critical Load Stall Begin: 352
Min ROB occupancy Critical Load Stall End: 5
Max ROB occupancy Critical Load Stall End: 352
 ROB Load Stall Begin Bucket Count 0: 2651312
 ROB Load Stall End Bucket Count 0: 2417668
 ROB Critical Load Stall Begin Bucket Count 0: 3050
 ROB Critical Load Stall End Bucket Count 0: 2382
 ROB Load Stall Begin Bucket Count 1: 544521
 ROB Load Stall End Bucket Count 1: 694181
 ROB Critical Load Stall Begin Bucket Count 1: 57530
 ROB Critical Load Stall End Bucket Count 1: 50977
 ROB Load Stall Begin Bucket Count 2: 185907
 ROB Load Stall End Bucket Count 2: 248334
 ROB Critical Load Stall Begin Bucket Count 2: 19743
 ROB Critical Load Stall End Bucket Count 2: 24066
 ROB Load Stall Begin Bucket Count 3: 42141
 ROB Load Stall End Bucket Count 3: 57712
 ROB Critical Load Stall Begin Bucket Count 3: 6089
 ROB Critical Load Stall End Bucket Count 3: 8323
 ROB Load Stall Begin Bucket Count 4: 17023
 ROB Load Stall End Bucket Count 4: 20444
 ROB Critical Load Stall Begin Bucket Count 4: 5500
 ROB Critical Load Stall End Bucket Count 4: 5684
 ROB Load Stall Begin Bucket Count 5: 10705
 ROB Load Stall End Bucket Count 5: 11506
 ROB Critical Load Stall Begin Bucket Count 5: 5089
 ROB Critical Load Stall End Bucket Count 5: 5050
 ROB Load Stall Begin Bucket Count 6: 20243
 ROB Load Stall End Bucket Count 6: 22007
 ROB Critical Load Stall Begin Bucket Count 6: 15549
 ROB Critical Load Stall End Bucket Count 6: 16068
PIST Tag Read Accesses: 2359454
PIST Read Accesses: 1179727
PIST Tag Write Accesses: 2359454
PIST Write Accesses: 1179727
Criticality detector called times: 3359302
Max global_stall_cycles_count: 2047163
Threshold Modified: 1 times, factor: -1
Sturdy critical IP cache stats: 
 Unused entries: 0
CIC Tag Read Accesses: 0
CIC Read Accesses: 0
CIC Tag Write Accesses: 0
CIC Write Accesses: 0
Wobbly critical IP cache stats: 
 Unused entries: 125
CIC Tag Read Accesses: 85379851
CIC Read Accesses: 0
CIC Tag Write Accesses: 3
CIC Write Accesses: 0
ITLB TOTAL     ACCESS:   10095418  HIT:    9443314  MISS:     652104  HIT %:    93.5406  MISS %:    6.45941   MPKI: 13.0421
ITLB LOAD TRANSLATION ACCESS:    8121078  HIT:    8027586  MISS:      93492  HIT %:    98.8488  MISS %:    1.15123   MPKI: 1.86984
ITLB TRANSLATION FROM L1D PREFETCHER ACCESS:    1974340  HIT:    1415728  MISS:     558612  HIT %:    71.7064  MISS %:    28.2936   MPKI: 11.1722
ITLBprefetch_cycle_count: 0 prefetches_per_prefetch_cycle: -nan
ITLB PREFETCH  REQUESTED:          0  ISSUED:          0  USEFUL:     452945  USELESS:     105667
ITLB USEFUL LOAD PREFETCHES:     452945 PREFETCH ISSUED TO LOWER LEVEL:          0  ACCURACY: inf
ITLB TIMELY PREFETCHES:     452945 LATE PREFETCHES: 284 DROPPED PREFETCHES: 3929
ITLB PREFETCHES SAME FILL-ORIGIN LEVEL: 0 DIFFERENT FILL-ORIGIN LEVEL: 0
ITLB AVERAGE MISS LATENCY: 27507.6 cycles
ITLB RQ	ACCESS:   15172735	FORWARD:          0	MERGED:    5030329	TO_CACHE:   10142406

DTLB TOTAL     ACCESS:   11517509  HIT:   11040338  MISS:     477171  HIT %:     95.857  MISS %:    4.14301   MPKI: 9.54342
DTLB LOAD TRANSLATION ACCESS:   11517509  HIT:   11040338  MISS:     477171  HIT %:     95.857  MISS %:    4.14301   MPKI: 9.54342
DTLBprefetch_cycle_count: 0 prefetches_per_prefetch_cycle: -nan
DTLB PREFETCH  REQUESTED:          0  ISSUED:          0  USEFUL:          0  USELESS:          0
DTLB USEFUL LOAD PREFETCHES:          0 PREFETCH ISSUED TO LOWER LEVEL:          0  ACCURACY: -nan
DTLB TIMELY PREFETCHES:          0 LATE PREFETCHES: 0 DROPPED PREFETCHES: 0
DTLB PREFETCHES SAME FILL-ORIGIN LEVEL: 0 DIFFERENT FILL-ORIGIN LEVEL: 0
DTLB AVERAGE MISS LATENCY: 9.32214 cycles
DTLB RQ	ACCESS:   14997745	FORWARD:          0	MERGED:    3453936	TO_CACHE:   11543809

STLB TOTAL     ACCESS:    1129275  HIT:    1127184  MISS:       2091  HIT %:    99.8148  MISS %:   0.185163   MPKI: 0.04182
STLB LOAD TRANSLATION ACCESS:     570379  HIT:     568377  MISS:       2002  HIT %:     99.649  MISS %:   0.350995   MPKI: 0.04004
STLB TRANSLATION FROM L1D PREFETCHER ACCESS:     558896  HIT:     558807  MISS:         89  HIT %:    99.9841  MISS %:  0.0159243   MPKI: 0.00178
STLBprefetch_cycle_count: 0 prefetches_per_prefetch_cycle: -nan
STLB PREFETCH  REQUESTED:          0  ISSUED:          0  USEFUL:         80  USELESS:         10
STLB USEFUL LOAD PREFETCHES:         80 PREFETCH ISSUED TO LOWER LEVEL:          0  ACCURACY: inf
STLB TIMELY PREFETCHES:         80 LATE PREFETCHES: 0 DROPPED PREFETCHES: 3929
STLB PREFETCHES SAME FILL-ORIGIN LEVEL: 0 DIFFERENT FILL-ORIGIN LEVEL: 0
STLB AVERAGE MISS LATENCY: 80.4505 cycles
STLB RQ	ACCESS:    1133204	FORWARD:          0	MERGED:          0	TO_CACHE:    1133204

STLB Hit, L1D data hit: 0
STLB Hit, L2C data hit: 0
STLB Hit, LLC data hit: 0
STLB Hit, LLC data miss: 0
STLB STLB hints to L2: 0
L1D TOTAL     ACCESS:   14454135  HIT:   13390491  MISS:    1063644  HIT %:    92.6412  MISS %:    7.35875   MPKI: 21.2729
L1D LOAD      ACCESS:    8129873  HIT:    7357431  MISS:     772442  HIT %:    90.4987  MISS %:    9.50128   MPKI: 15.4488
L1D RFO       ACCESS:    6324262  HIT:    6033060  MISS:     291202  HIT %:    95.3955  MISS %:    4.60452   MPKI: 5.82404
L1Dprefetch_cycle_count: 0 prefetches_per_prefetch_cycle: -nan
L1D PREFETCH  REQUESTED:          0  ISSUED:          0  USEFUL:          0  USELESS:          0
L1D USEFUL LOAD PREFETCHES:          0 PREFETCH ISSUED TO LOWER LEVEL:          0  ACCURACY: -nan
L1D TIMELY PREFETCHES:          0 LATE PREFETCHES: 0 DROPPED PREFETCHES: 0
L1D PREFETCHES SAME FILL-ORIGIN LEVEL: 0 DIFFERENT FILL-ORIGIN LEVEL: 0
L1D AVERAGE MISS LATENCY: 29.0662 cycles
L1D RQ	ACCESS:   11633410	FORWARD:          0	MERGED:    3325395	TO_CACHE:    8168216
L1D WQ	ACCESS:    6901339	FORWARD:     139799	MERGED:      71810	TO_CACHE:    6829529

L1D UNIQUE REGIONS ACCESSED: 0
L1D REGIONS CONFLICTS: 0
L1D Cross Page Prefetch Requests: 0
L1D Same Page Prefetch Requests: 0
L1D ROI Sum of L1D PQ occupancy: 0
L1D PREFETCHES PUSHED FROM L2C: 0
L1I TOTAL     ACCESS:   15014289  HIT:   10951355  MISS:    4062934  HIT %:    72.9396  MISS %:    27.0604   MPKI: 81.2587
L1I LOAD      ACCESS:    9558766  HIT:    9277993  MISS:     280773  HIT %:    97.0627  MISS %:    2.93734   MPKI: 5.61546
L1I PREFETCH  ACCESS:    5455523  HIT:    1673362  MISS:    3782161  HIT %:    30.6728  MISS %:    69.3272   MPKI: 75.6432
L1Iprefetch_cycle_count: 0 prefetches_per_prefetch_cycle: inf
L1I PREFETCH  REQUESTED:    5714448  ISSUED:    5703565  USEFUL:    2586522  USELESS:    1195640
L1I USEFUL LOAD PREFETCHES:    2586522 PREFETCH ISSUED TO LOWER LEVEL:    3818544  ACCURACY: 67.7358
L1I TIMELY PREFETCHES:    2586522 LATE PREFETCHES: 31310 DROPPED PREFETCHES: 9468
L1I PREFETCHES SAME FILL-ORIGIN LEVEL: 3818544 DIFFERENT FILL-ORIGIN LEVEL: 0
L1I AVERAGE MISS LATENCY: 426929 cycles
L1I RQ	ACCESS:   13503650	FORWARD:          0	MERGED:    3920140	TO_CACHE:    9583510
L1I PQ	ACCESS:    5703565	FORWARD:          0	MERGED:     114340	TO_CACHE:    5589225

BTB TOTAL     ACCESS:    5981442  HIT:    3992144  MISS:    1989298  HIT %:    66.7422  MISS %:    33.2578   MPKI: 39.786
BTB BRANCH_DIRECT_JUMP	ACCESS:     522043  HIT:     347789  MISS:     174254
BTB BRANCH_INDIRECT	ACCESS:     204034  HIT:     166604  MISS:      37430
BTB BRANCH_CONDITIONAL	ACCESS:    3043078  HIT:    2486507  MISS:     556571
BTB BRANCH_DIRECT_CALL	ACCESS:     932385  HIT:     529353  MISS:     403032
BTB BRANCH_INDIRECT_CALL	ACCESS:     173762  HIT:      95752  MISS:      78010
BTB BRANCH_RETURN	ACCESS:    1106140  HIT:     366139  MISS:     740001
BTB BRANCH_OTHER ACCESS:          0  HIT:          0  MISS:          0

L2C TOTAL     ACCESS:    9909382  HIT:    7262942  MISS:    2646440  HIT %:    73.2936  MISS %:    26.7064   MPKI: 52.9288
L2C LOAD      ACCESS:    1021900  HIT:     703856  MISS:     318044  HIT %:    68.8772  MISS %:    31.1228   MPKI: 6.36088
L2C DATA LOAD MPKI: 4.9157
L2C INSTRUCTION LOAD MPKI: 1.44518
L2C RFO       ACCESS:     291200  HIT:     152868  MISS:     138332  HIT %:    52.4959  MISS %:    47.5041   MPKI: 2.76664
L2C PREFETCH  ACCESS:    8075792  HIT:    5978298  MISS:    2097494  HIT %:    74.0274  MISS %:    25.9726   MPKI: 41.9499
L2C DATA PREFETCH MPKI: 25.5283
L2C INSTRUCTION PREFETCH MPKI: 16.4216
L2C WRITEBACK ACCESS:     511560  HIT:     421031  MISS:      90529  HIT %:    82.3033  MISS %:    17.6967   MPKI: 1.81058
L2C LOAD TRANSLATION ACCESS:       2107  HIT:        351  MISS:       1756  HIT %:    16.6588  MISS %:    83.3412   MPKI: 0.03512
L2C TRANSLATION FROM L1D PREFETCHER ACCESS:       6823  HIT:       6538  MISS:        285  HIT %:     95.823  MISS %:    4.17705   MPKI: 0.0057
L2Cprefetch_cycle_count: 3811473 prefetches_per_prefetch_cycle: 1.71563
L2C PREFETCH  REQUESTED:    6539202  ISSUED:    6539076  USEFUL:     119984  USELESS:    1977566
L2C USEFUL LOAD PREFETCHES:     119984 PREFETCH ISSUED TO LOWER LEVEL:    2193940  ACCURACY: 5.46888
L2C TIMELY PREFETCHES:     119984 LATE PREFETCHES: 35587 DROPPED PREFETCHES: 0
L2C PREFETCHES SAME FILL-ORIGIN LEVEL: 1326363 DIFFERENT FILL-ORIGIN LEVEL: 60860
L2C AVERAGE MISS LATENCY: 31.7376 cycles
L2C RQ	ACCESS:    1322037	FORWARD:          0	MERGED:          0	TO_CACHE:    1322030
L2C WQ	ACCESS:     511560	FORWARD:          7	MERGED:          0	TO_CACHE:     511560
L2C PQ	ACCESS:   10352545	FORWARD:          0	MERGED:    2137622	TO_CACHE:    8214923

L2C Instructions Evicting Data 589431
L2C Translations Evicting Data 1537
L2C Data Evicting Data 1100893
L2C Instructions Evicting Instructions 303404
L2C Translations Evicting Instructions 495
L2C Data Evicting Instructions 558141
L2C Instructions Evicting Translations 503
L2C Translations Evicting Translations 9
L2C Data Evicting Translations 1498
L2C Dense regions hint from L2: 0
PSCL5 TOTAL     ACCESS:       6020  HIT:       6020  MISS:          0  HIT %:        100  MISS %:          0   MPKI: 0
PSCL5 LOAD TRANSLATION ACCESS:       2002  HIT:       2002  MISS:          0  HIT %:        100  MISS %:          0   MPKI: 0
PSCL5 TRANSLATION FROM L1D PREFETCHER ACCESS:       4018  HIT:       4018  MISS:          0  HIT %:        100  MISS %:          0   MPKI: 0
PSCL5prefetch_cycle_count: 0 prefetches_per_prefetch_cycle: -nan
PSCL5 PREFETCH  REQUESTED:          0  ISSUED:          0  USEFUL:          0  USELESS:          0
PSCL5 USEFUL LOAD PREFETCHES:          0 PREFETCH ISSUED TO LOWER LEVEL:          0  ACCURACY: -nan
PSCL5 TIMELY PREFETCHES:          0 LATE PREFETCHES: 0 DROPPED PREFETCHES: 0
PSCL5 PREFETCHES SAME FILL-ORIGIN LEVEL: 0 DIFFERENT FILL-ORIGIN LEVEL: 0

PSCL4 TOTAL     ACCESS:       5908  HIT:       5901  MISS:          7  HIT %:    99.8815  MISS %:   0.118483   MPKI: 0.00014
PSCL4 LOAD TRANSLATION ACCESS:       1915  HIT:       1908  MISS:          7  HIT %:    99.6345  MISS %:   0.365535   MPKI: 0.00014
PSCL4 TRANSLATION FROM L1D PREFETCHER ACCESS:       3993  HIT:       3993  MISS:          0  HIT %:        100  MISS %:          0   MPKI: 0
PSCL4prefetch_cycle_count: 0 prefetches_per_prefetch_cycle: -nan
PSCL4 PREFETCH  REQUESTED:          0  ISSUED:          0  USEFUL:          0  USELESS:          0
PSCL4 USEFUL LOAD PREFETCHES:          0 PREFETCH ISSUED TO LOWER LEVEL:          0  ACCURACY: -nan
PSCL4 TIMELY PREFETCHES:          0 LATE PREFETCHES: 0 DROPPED PREFETCHES: 0
PSCL4 PREFETCHES SAME FILL-ORIGIN LEVEL: 0 DIFFERENT FILL-ORIGIN LEVEL: 0

PSCL3 TOTAL     ACCESS:       5942  HIT:       5935  MISS:          7  HIT %:    99.8822  MISS %:   0.117805   MPKI: 0.00014
PSCL3 LOAD TRANSLATION ACCESS:       1949  HIT:       1942  MISS:          7  HIT %:    99.6408  MISS %:   0.359159   MPKI: 0.00014
PSCL3 TRANSLATION FROM L1D PREFETCHER ACCESS:       3993  HIT:       3993  MISS:          0  HIT %:        100  MISS %:          0   MPKI: 0
PSCL3prefetch_cycle_count: 0 prefetches_per_prefetch_cycle: -nan
PSCL3 PREFETCH  REQUESTED:          0  ISSUED:          0  USEFUL:          0  USELESS:          0
PSCL3 USEFUL LOAD PREFETCHES:          0 PREFETCH ISSUED TO LOWER LEVEL:          0  ACCURACY: -nan
PSCL3 TIMELY PREFETCHES:          0 LATE PREFETCHES: 0 DROPPED PREFETCHES: 0
PSCL3 PREFETCHES SAME FILL-ORIGIN LEVEL: 0 DIFFERENT FILL-ORIGIN LEVEL: 0

PSCL2 TOTAL     ACCESS:       3241  HIT:       3133  MISS:        108  HIT %:    96.6677  MISS %:     3.3323   MPKI: 0.00216
PSCL2 LOAD TRANSLATION ACCESS:       2016  HIT:       1908  MISS:        108  HIT %:    94.6429  MISS %:    5.35714   MPKI: 0.00216
PSCL2 TRANSLATION FROM L1D PREFETCHER ACCESS:       1225  HIT:       1225  MISS:          0  HIT %:        100  MISS %:          0   MPKI: 0
PSCL2prefetch_cycle_count: 0 prefetches_per_prefetch_cycle: -nan
PSCL2 PREFETCH  REQUESTED:          0  ISSUED:          0  USEFUL:          0  USELESS:          0
PSCL2 USEFUL LOAD PREFETCHES:          0 PREFETCH ISSUED TO LOWER LEVEL:          0  ACCURACY: -nan
PSCL2 TIMELY PREFETCHES:          0 LATE PREFETCHES: 0 DROPPED PREFETCHES: 0
PSCL2 PREFETCHES SAME FILL-ORIGIN LEVEL: 0 DIFFERENT FILL-ORIGIN LEVEL: 0

LLC TOTAL     ACCESS:    2846547  HIT:    2800134  MISS:      46413  HIT %:    98.3695  MISS %:     1.6305   MPKI: 0.92826
LLC LOAD      ACCESS:     282799  HIT:     278447  MISS:       4352  HIT %:    98.4611  MISS %:     1.5389   MPKI: 0.08704
LLC RFO       ACCESS:     137988  HIT:     122670  MISS:      15318  HIT %:     88.899  MISS %:     11.101   MPKI: 0.30636
LLC PREFETCH  ACCESS:    2193820  HIT:    2167748  MISS:      26072  HIT %:    98.8116  MISS %:    1.18843   MPKI: 0.52144
LLC WRITEBACK ACCESS:     229899  HIT:     229516  MISS:        383  HIT %:    99.8334  MISS %:   0.166595   MPKI: 0.00766
LLC LOAD TRANSLATION ACCESS:       1756  HIT:       1492  MISS:        264  HIT %:    84.9658  MISS %:    15.0342   MPKI: 0.00528
LLC TRANSLATION FROM L1D PREFETCHER ACCESS:        285  HIT:        261  MISS:         24  HIT %:    91.5789  MISS %:    8.42105   MPKI: 0.00048
LLCprefetch_cycle_count: 0 prefetches_per_prefetch_cycle: -nan
LLC PREFETCH  REQUESTED:          0  ISSUED:          0  USEFUL:        996  USELESS:      23354
LLC USEFUL LOAD PREFETCHES:        996 PREFETCH ISSUED TO LOWER LEVEL:      26086  ACCURACY: 3.81814
LLC TIMELY PREFETCHES:        996 LATE PREFETCHES: 14 DROPPED PREFETCHES: 0
LLC PREFETCHES SAME FILL-ORIGIN LEVEL: 1060 DIFFERENT FILL-ORIGIN LEVEL: 0
LLC AVERAGE MISS LATENCY: 177.534 cycles
LLC RQ	ACCESS:     422830	FORWARD:          0	MERGED:          0	TO_CACHE:     422828
LLC WQ	ACCESS:     229899	FORWARD:         13	MERGED:          0	TO_CACHE:     229899
LLC PQ	ACCESS:    2193940	FORWARD:          0	MERGED:         70	TO_CACHE:    2193859

LLC Dense regions hint to LLC: 0

RAW hits: 982410
Loads Generated: 12615820
Loads sent to L1D: 11633410
Stores Generated: 6901350
Stores sent to L1D: 6901339
Major fault: 0 Minor fault: 2264
Allocated PAGES: 2264
I-Shadow cache 408 bytes
Touched + WorthPF tables 6144 bytes 
MMA filter 174 bytes 
FNL filter 272 bytes 
TOTAL PREFETCHER STORAGE SIZE: 25174 bytes
CPU 0 L1I next line prefetcher final stats
total_pref_operate_instances_l2: 4520920
dynamic_config_counter_instances_l2_1: 4506909
dynamic_config_counter_instances_l2_2: 6712
dynamic_config_counter_instances_l2_3: 7299
dynamic_config_counter_instances_l2_4: 0
dynamic_config_counter_instances_l2_5: 0
------------------
Depth Distribution
------------------
depth 0: 482028
depth 1: 250590
depth 2: 935053
depth 3: 6766655
depth 4: 575529
depth 5: 1492
depth 6: 1070
depth 7: 1530
depth 8: 1216
depth 9: 1212
depth 10: 316
depth 11: 1316
depth 12: 314
depth 13: 63
depth 14: 85
depth 15: 0
depth 16: 0
depth 17: 0
depth 18: 0
depth 19: 0
depth 20: 0
depth 21: 0
depth 22: 0
depth 23: 0
depth 24: 0
depth 25: 0
depth 26: 0
depth 27: 0
depth 28: 0
depth 29: 0
Total: 9018469
------------------
ST read accesses: 3324471
ST write accesses: 1196449
PT read accesses: 89786253
PT write accesses: 4011683
FILTER read accesses: 22405660
FILTER write accesses: 14944950
GHR read accesses: 11994685
GHR write accesses: 483247
PERC read accesses: 642263094
PERC write accesses: 52599423
GHR counter read accesses: 9041840
GHR counter write accesses: 14819460
GHR ip read accesses: 34148481
GHR ip write accesses: 18083680
ST tag read accesses: 149030415
ST tag write accesses: 25308835

DRAM Statistics
 CHANNEL 0
 RQ ROW_BUFFER_HIT:      13530  ROW_BUFFER_MISS:      32474
 DBUS_CONGESTED:        101
 WQ ROW_BUFFER_HIT:       1548  ROW_BUFFER_MISS:      15564  FULL:          0

 AVG_CONGESTED_CYCLE: 4
 All warmup complete: 2
Channel 0 Bank busy for read cycles: 0
Channel 0 Bank busy for write cycles: 0
Channel 0
Rank 0
0banks busy for read cycles: 78811061
0banks busy for write cycles: 5927
1banks busy for read cycles: 1601894
1banks busy for write cycles: 722142
2banks busy for read cycles: 385168
2banks busy for write cycles: 165915
3banks busy for read cycles: 220900
3banks busy for write cycles: 85396
4banks busy for read cycles: 162934
4banks busy for write cycles: 56730
5banks busy for read cycles: 71942
5banks busy for write cycles: 43713
6banks busy for read cycles: 58686
6banks busy for write cycles: 37934
7banks busy for read cycles: 55715
7banks busy for write cycles: 37097
8banks busy for read cycles: 103297
8banks busy for write cycles: 88867

CPU 0 Branch Prediction Accuracy: 99.822% MPKI: 0.32584 Average ROB Occupancy at Mispredict: 76.57
Branch types
NOT_BRANCH: 40848390 81.6968%
BRANCH_DIRECT_JUMP: 522043 1.04409%
BRANCH_INDIRECT: 204034 0.408068%
BRANCH_CONDITIONAL: 6212934 12.4259%
BRANCH_DIRECT_CALL: 932385 1.86477%
BRANCH_INDIRECT_CALL: 173762 0.347524%
BRANCH_RETURN: 1106140 2.21228%
BRANCH_OTHER: 0 0%

DRAM PAGES: 1048576
Allocated PAGES: 2264
