Initialize SIGNATURE TABLE
ST_SET: 1
ST_WAY: 256
ST_TAG_BIT: 16
ST_TAG_MASK: ffff

Initialize PATTERN TABLE
PT_SET: 512
PT_WAY: 4
SIG_DELTA_BIT: 7
C_SIG_BIT: 4
C_DELTA_BIT: 4

Initialize PREFETCH FILTER
FILTER_SET: 1024
MANA initialize 
tds: 2 tdm: 4
size MANA SINGLE: 25.5 KB
size MANA NULTIPLE: 9.875 KB
size HOBPT: 0.703125 KB
size SRQ: 0.0644531 KB
size SABs: 0.0402832 KB
size prefetch queue: 0.453125 KB
total: 36.636 KB

*** ChampSim Multicore Out-of-Order Simulator ***

Warmup Instructions: 50000000
Simulation Instructions: 50000000
Number of CPUs: 1
LLC sets: 2048
LLC ways: 16
Off-chip DRAM Size: 4096 MB Channels: 1 Width: 64-bit Data Rate: 6400 MT/s
CPU 0 runs ../IPC-traces//server_022.champsimtrace.xz
.xz
BTB has LRU replacement policy
ITLB has LRU replacement policy
DTLB has LRU replacement policy
STLB has LRU replacement policy
L1I has LRU replacement policy
L1D has LRU replacement policy
Initialize SRRIP state for L2C
Initialize DRRIP state for LLC
Heartbeat CPU 0 instructions: 10000001 cycles: 3210934 heartbeat IPC: 3.11436 cumulative IPC: 3.11436 (Simulation time: 0 hr 6 min 33 sec) 
Heartbeat CPU 0 instructions: 20000000 cycles: 6433236 heartbeat IPC: 3.10337 cumulative IPC: 3.10886 (Simulation time: 0 hr 11 min 21 sec) 
Heartbeat CPU 0 instructions: 30000002 cycles: 9646323 heartbeat IPC: 3.11227 cumulative IPC: 3.10999 (Simulation time: 0 hr 16 min 7 sec) 
Heartbeat CPU 0 instructions: 40000003 cycles: 12868402 heartbeat IPC: 3.10359 cumulative IPC: 3.10839 (Simulation time: 0 hr 20 min 19 sec) 
Heartbeat CPU 0 instructions: 50000003 cycles: 16083997 heartbeat IPC: 3.10984 cumulative IPC: 3.10868 (Simulation time: 0 hr 23 min 56 sec) 

Warmup complete CPU 0 instructions: 50000003 cycles: 16083997 (Simulation time: 0 hr 23 min 56 sec) 

Epoch all ip prefetch: 0, epoch id: 2
Epoch all ip prefetch: 1, epoch id: 3
Epoch all ip prefetch: 0, epoch id: 4
Epoch all ip prefetch: 0, epoch id: 5
Epoch all ip prefetch: 0, epoch id: 6
Epoch all ip prefetch: 0, epoch id: 7
Epoch all ip prefetch: 0, epoch id: 8
Epoch all ip prefetch: 0, epoch id: 9
Epoch all ip prefetch: 0, epoch id: 10
Epoch all ip prefetch: 0, epoch id: 11
Heartbeat CPU 0 instructions: 60000002 cycles: 36546900 heartbeat IPC: 0.488689 cumulative IPC: 0.488689 (Simulation time: 0 hr 29 min 28 sec) 
Epoch all ip prefetch: 0, epoch id: 12
Epoch all ip prefetch: 0, epoch id: 13
Epoch all ip prefetch: 0, epoch id: 14
Epoch all ip prefetch: 0, epoch id: 15
Epoch all ip prefetch: 0, epoch id: 16
Epoch all ip prefetch: 0, epoch id: 17
Epoch all ip prefetch: 0, epoch id: 18
Epoch all ip prefetch: 0, epoch id: 19
Epoch all ip prefetch: 0, epoch id: 20
Epoch all ip prefetch: 0, epoch id: 21
Heartbeat CPU 0 instructions: 70000001 cycles: 57079527 heartbeat IPC: 0.48703 cumulative IPC: 0.487858 (Simulation time: 0 hr 34 min 33 sec) 
Epoch all ip prefetch: 0, epoch id: 22
Epoch all ip prefetch: 0, epoch id: 23
Epoch all ip prefetch: 0, epoch id: 24
Epoch all ip prefetch: 0, epoch id: 25
Epoch all ip prefetch: 0, epoch id: 26
Epoch all ip prefetch: 0, epoch id: 27
Epoch all ip prefetch: 0, epoch id: 28
Epoch all ip prefetch: 0, epoch id: 29
Epoch all ip prefetch: 0, epoch id: 30
Epoch all ip prefetch: 0, epoch id: 31
Heartbeat CPU 0 instructions: 80000000 cycles: 77424559 heartbeat IPC: 0.49152 cumulative IPC: 0.489073 (Simulation time: 0 hr 40 min 4 sec) 
Epoch all ip prefetch: 0, epoch id: 32
Epoch all ip prefetch: 0, epoch id: 33
Epoch all ip prefetch: 0, epoch id: 34
Epoch all ip prefetch: 0, epoch id: 35
Epoch all ip prefetch: 0, epoch id: 36
Epoch all ip prefetch: 0, epoch id: 37
Epoch all ip prefetch: 0, epoch id: 38
Epoch all ip prefetch: 0, epoch id: 39
Epoch all ip prefetch: 0, epoch id: 40
Epoch all ip prefetch: 0, epoch id: 41
Heartbeat CPU 0 instructions: 90000003 cycles: 97979171 heartbeat IPC: 0.486509 cumulative IPC: 0.488429 (Simulation time: 0 hr 47 min 28 sec) 
Epoch all ip prefetch: 0, epoch id: 42
Epoch all ip prefetch: 0, epoch id: 43
Epoch all ip prefetch: 0, epoch id: 44
Epoch all ip prefetch: 0, epoch id: 45
Epoch all ip prefetch: 0, epoch id: 46
Epoch all ip prefetch: 0, epoch id: 47
Epoch all ip prefetch: 0, epoch id: 48
Epoch all ip prefetch: 0, epoch id: 49
Epoch all ip prefetch: 0, epoch id: 50
Epoch all ip prefetch: 0, epoch id: 51
Heartbeat CPU 0 instructions: 100000000 cycles: 118420164 heartbeat IPC: 0.489213 cumulative IPC: 0.488586 (Simulation time: 0 hr 55 min 5 sec) 
Finished CPU 0 instructions: 50000001 cycles: 102336168 cumulative IPC: 0.488586 (Simulation time: 0 hr 55 min 5 sec) 

ChampSim completed all CPUs

Region of Interest Statistics

CPU 0 cumulative IPC: 0.488586 instructions: 50000001 cycles: 102336168

CPU 0 Average Load ROB stall cycles: 6.09094
CPU 0 Fraction of times ROB stalled by Loads: 31.6267
CPU 0 Percentage of Load stall cycles in Total stall cycles: 65.3863
CPU 0 NUM of IPS identified critical: 0

Average ROB occupancy Load Stall Begin: 140.661
Average ROB occupancy Load Stall End: 151.191
Min ROB occupancy Load Stall Begin: 1
Max ROB occupancy Load Stall Begin: 351
Min ROB occupancy Load Stall End: 1
Max ROB occupancy Load Stall End: 352
Average ROB occupancy Critical Load Stall Begin: -nan
Average ROB occupancy Critical Load Stall End: -nan
Min ROB occupancy Critical Load Stall Begin: 400
Max ROB occupancy Critical Load Stall Begin: 0
Min ROB occupancy Critical Load Stall End: 400
Max ROB occupancy Critical Load Stall End: 0
 ROB Load Stall Begin Bucket Count 0: 613936
 ROB Load Stall End Bucket Count 0: 467379
 ROB Critical Load Stall Begin Bucket Count 0: 0
 ROB Critical Load Stall End Bucket Count 0: 0
 ROB Load Stall Begin Bucket Count 1: 377496
 ROB Load Stall End Bucket Count 1: 435541
 ROB Critical Load Stall Begin Bucket Count 1: 0
 ROB Critical Load Stall End Bucket Count 1: 0
 ROB Load Stall Begin Bucket Count 2: 212726
 ROB Load Stall End Bucket Count 2: 249956
 ROB Critical Load Stall Begin Bucket Count 2: 0
 ROB Critical Load Stall End Bucket Count 2: 0
 ROB Load Stall Begin Bucket Count 3: 127312
 ROB Load Stall End Bucket Count 3: 150964
 ROB Critical Load Stall Begin Bucket Count 3: 0
 ROB Critical Load Stall End Bucket Count 3: 0
 ROB Load Stall Begin Bucket Count 4: 98807
 ROB Load Stall End Bucket Count 4: 107689
 ROB Critical Load Stall Begin Bucket Count 4: 0
 ROB Critical Load Stall End Bucket Count 4: 0
 ROB Load Stall Begin Bucket Count 5: 90695
 ROB Load Stall End Bucket Count 5: 90476
 ROB Critical Load Stall Begin Bucket Count 5: 0
 ROB Critical Load Stall End Bucket Count 5: 0
 ROB Load Stall Begin Bucket Count 6: 367420
 ROB Load Stall End Bucket Count 6: 386387
 ROB Critical Load Stall Begin Bucket Count 6: 0
 ROB Critical Load Stall End Bucket Count 6: 0
Threshold Modified: 2 times, factor: 0
Sturdy critical IP cache stats: 
 Unused entries: 96
Wobbly critical IP cache stats: 
 Unused entries: 192
ITLB TOTAL     ACCESS:   11643661  HIT:   11226657  MISS:     417004  HIT %:    96.4186  MISS %:    3.58138   MPKI: 8.34008
ITLB LOAD TRANSLATION ACCESS:    8558219  HIT:    8494074  MISS:      64145  HIT %:    99.2505  MISS %:   0.749513   MPKI: 1.2829
ITLB TRANSLATION FROM L1D PREFETCHER ACCESS:    3085442  HIT:    2732583  MISS:     352859  HIT %:    88.5637  MISS %:    11.4363   MPKI: 7.05718
ITLB AVERAGE MISS LATENCY: 7.03784e+06 cycles
ITLB RQ	ACCESS:   19327376	FORWARD:          0	MERGED:    7579475	TO_CACHE:   11747901

DTLB TOTAL     ACCESS:   10949842  HIT:   10539529  MISS:     410313  HIT %:    96.2528  MISS %:     3.7472   MPKI: 8.20626
DTLB LOAD TRANSLATION ACCESS:   10949842  HIT:   10539529  MISS:     410313  HIT %:    96.2528  MISS %:     3.7472   MPKI: 8.20626
DTLB AVERAGE MISS LATENCY: 17.6348 cycles
DTLB RQ	ACCESS:   16277006	FORWARD:          0	MERGED:    5242475	TO_CACHE:   11034531

STLB TOTAL     ACCESS:     827317  HIT:     807743  MISS:      19574  HIT %:     97.634  MISS %:    2.36596   MPKI: 0.39148
STLB LOAD TRANSLATION ACCESS:     430722  HIT:     411535  MISS:      19187  HIT %:    95.5454  MISS %:    4.45461   MPKI: 0.38374
STLB TRANSLATION FROM L1D PREFETCHER ACCESS:     396595  HIT:     396208  MISS:        387  HIT %:    99.9024  MISS %:  0.0975807   MPKI: 0.00774
STLB AVERAGE MISS LATENCY: 188.129 cycles
STLB RQ	ACCESS:     830469	FORWARD:          0	MERGED:          0	TO_CACHE:     830469

STLB Hit, L1D data hit: 0
STLB Hit, L2C data hit: 0
STLB Hit, LLC data hit: 0
STLB Hit, LLC data miss: 0
STLB STLB hints to L2: 0
L1D TOTAL     ACCESS:   13587367  HIT:   11769055  MISS:    1818312  HIT %:    86.6176  MISS %:    13.3824   MPKI: 36.3662
L1D LOAD      ACCESS:    7442087  HIT:    6619082  MISS:     823005  HIT %:    88.9412  MISS %:    11.0588   MPKI: 16.4601
L1D RFO       ACCESS:    6145280  HIT:    5149973  MISS:     995307  HIT %:    83.8037  MISS %:    16.1963   MPKI: 19.9061
L1D AVERAGE MISS LATENCY: 175.157 cycles
L1D RQ	ACCESS:   11107010	FORWARD:          0	MERGED:    3493345	TO_CACHE:    7482738
L1D WQ	ACCESS:    8887929	FORWARD:     130927	MERGED:      93661	TO_CACHE:    8794268

L1D UNIQUE REGIONS ACCESSED: 0
L1D REGIONS CONFLICTS: 0
L1D Cross Page Prefetch Requests: 0
L1D Same Page Prefetch Requests: 0
L1D ROI Sum of L1D PQ occupancy: 0
L1D PREFETCHES PUSHED FROM L2C: 0
L1I TOTAL     ACCESS:   18795749  HIT:   16297245  MISS:    2498504  HIT %:    86.7071  MISS %:    13.2929   MPKI: 49.9701
L1I LOAD      ACCESS:    9960217  HIT:    9619550  MISS:     340667  HIT %:    96.5797  MISS %:    3.42028   MPKI: 6.81334
L1I PREFETCH  ACCESS:    8835532  HIT:    6677695  MISS:    2157837  HIT %:    75.5777  MISS %:    24.4223   MPKI: 43.1567
L1I PREFETCH  REQUESTED:   10692984  ISSUED:    9843618  USEFUL:    2085802  USELESS:      72047
L1I USEFUL LOAD PREFETCHES:    2085802 PREFETCH ISSUED TO LOWER LEVEL:    2351325  ACCURACY: 88.7075
L1I TIMELY PREFETCHES:    2085802 LATE PREFETCHES: 192727 DROPPED PREFETCHES: 3153
L1I AVERAGE MISS LATENCY: 5.17798e+06 cycles
L1I RQ	ACCESS:   14259074	FORWARD:          0	MERGED:    4240244	TO_CACHE:   10018830
L1I PQ	ACCESS:    9843618	FORWARD:          0	MERGED:     535072	TO_CACHE:    9308546

BTB TOTAL     ACCESS:    5297035  HIT:    5037191  MISS:     259844  HIT %:    95.0945  MISS %:    4.90546   MPKI: 5.19688
BTB BRANCH_DIRECT_JUMP	ACCESS:     445734  HIT:     443706  MISS:       2028
BTB BRANCH_INDIRECT	ACCESS:      48875  HIT:      48765  MISS:        110
BTB BRANCH_CONDITIONAL	ACCESS:    2967693  HIT:    2961533  MISS:       6160
BTB BRANCH_DIRECT_CALL	ACCESS:     758262  HIT:     754131  MISS:       4131
BTB BRANCH_INDIRECT_CALL	ACCESS:     159103  HIT:     129311  MISS:      29792
BTB BRANCH_RETURN	ACCESS:     917368  HIT:     699745  MISS:     217623
BTB BRANCH_OTHER ACCESS:          0  HIT:          0  MISS:          0

L2C TOTAL     ACCESS:    6971162  HIT:    5160239  MISS:    1810923  HIT %:    74.0227  MISS %:    25.9773   MPKI: 36.2185
L2C LOAD      ACCESS:     970937  HIT:     513084  MISS:     457853  HIT %:    52.8442  MISS %:    47.1558   MPKI: 9.15706
L2C DATA LOAD MPKI: 8.86574
L2C INSTRUCTION LOAD MPKI: 0.29132
L2C RFO       ACCESS:     995304  HIT:      37514  MISS:     957790  HIT %:     3.7691  MISS %:    96.2309   MPKI: 19.1558
L2C PREFETCH  ACCESS:    3808213  HIT:    3480274  MISS:     327939  HIT %:    91.3886  MISS %:    8.61136   MPKI: 6.55878
L2C DATA PREFETCH MPKI: 3.7713
L2C INSTRUCTION PREFETCH MPKI: 2.78748
L2C WRITEBACK ACCESS:    1171875  HIT:    1114180  MISS:      57695  HIT %:    95.0767  MISS %:    4.92331   MPKI: 1.1539
L2C LOAD TRANSLATION ACCESS:      21170  HIT:      11897  MISS:       9273  HIT %:    56.1974  MISS %:    43.8026   MPKI: 0.18546
L2C TRANSLATION FROM L1D PREFETCHER ACCESS:       3663  HIT:       3290  MISS:        373  HIT %:    89.8171  MISS %:    10.1829   MPKI: 0.00746
L2C PREFETCH  REQUESTED:    5994031  ISSUED:    5993260  USEFUL:     188200  USELESS:     140361
L2C USEFUL LOAD PREFETCHES:     188200 PREFETCH ISSUED TO LOWER LEVEL:    2757446  ACCURACY: 6.82516
L2C TIMELY PREFETCHES:     188200 LATE PREFETCHES: 1833 DROPPED PREFETCHES: 0
L2C AVERAGE MISS LATENCY: 169.027 cycles
L2C RQ	ACCESS:    1991085	FORWARD:          0	MERGED:          0	TO_CACHE:    1991074
L2C WQ	ACCESS:    1171875	FORWARD:         11	MERGED:          0	TO_CACHE:    1171875
L2C PQ	ACCESS:    8343824	FORWARD:          0	MERGED:    2057631	TO_CACHE:    6286193

L2C Instructions Evicting Data141974
L2C Translations Evicting Data8837
L2C Data Evicting Data1443967
L2C Instructions Evicting Instructions11219
L2C Translations Evicting Instructions761
L2C Data Evicting Instructions137079
L2C Instructions Evicting Translations747
L2C Translations Evicting Translations48
L2C Data Evicting Translations8596
L2C Dense regions hint from L2: 0
PSCL5 TOTAL     ACCESS:      22726  HIT:      22726  MISS:          0  HIT %:        100  MISS %:          0   MPKI: 0
PSCL5 LOAD TRANSLATION ACCESS:      19187  HIT:      19187  MISS:          0  HIT %:        100  MISS %:          0   MPKI: 0
PSCL5 TRANSLATION FROM L1D PREFETCHER ACCESS:       3539  HIT:       3539  MISS:          0  HIT %:        100  MISS %:          0   MPKI: 0

PSCL4 TOTAL     ACCESS:      20454  HIT:      20433  MISS:         21  HIT %:    99.8973  MISS %:   0.102669   MPKI: 0.00042
PSCL4 LOAD TRANSLATION ACCESS:      16919  HIT:      16898  MISS:         21  HIT %:    99.8759  MISS %:   0.124121   MPKI: 0.00042
PSCL4 TRANSLATION FROM L1D PREFETCHER ACCESS:       3535  HIT:       3535  MISS:          0  HIT %:        100  MISS %:          0   MPKI: 0

PSCL3 TOTAL     ACCESS:      22714  HIT:      22669  MISS:         45  HIT %:    99.8019  MISS %:   0.198116   MPKI: 0.0009
PSCL3 LOAD TRANSLATION ACCESS:      19185  HIT:      19140  MISS:         45  HIT %:    99.7654  MISS %:   0.234558   MPKI: 0.0009
PSCL3 TRANSLATION FROM L1D PREFETCHER ACCESS:       3529  HIT:       3529  MISS:          0  HIT %:        100  MISS %:          0   MPKI: 0

PSCL2 TOTAL     ACCESS:      19574  HIT:      17511  MISS:       2063  HIT %:    89.4605  MISS %:    10.5395   MPKI: 0.04126
PSCL2 LOAD TRANSLATION ACCESS:      19299  HIT:      17236  MISS:       2063  HIT %:    89.3103  MISS %:    10.6897   MPKI: 0.04126
PSCL2 TRANSLATION FROM L1D PREFETCHER ACCESS:        275  HIT:        275  MISS:          0  HIT %:        100  MISS %:          0   MPKI: 0

LLC TOTAL     ACCESS:    4842788  HIT:    3496107  MISS:    1346681  HIT %:     72.192  MISS %:     27.808   MPKI: 26.9336
LLC LOAD      ACCESS:     456046  HIT:     370680  MISS:      85366  HIT %:    81.2813  MISS %:    18.7187   MPKI: 1.70732
LLC RFO       ACCESS:     957761  HIT:     131180  MISS:     826581  HIT %:    13.6965  MISS %:    86.3035   MPKI: 16.5316
LLC PREFETCH  ACCESS:    2324038  HIT:    1948636  MISS:     375402  HIT %:     83.847  MISS %:     16.153   MPKI: 7.50804
LLC WRITEBACK ACCESS:    1095297  HIT:    1043342  MISS:      51955  HIT %:    95.2565  MISS %:    4.74346   MPKI: 1.0391
LLC LOAD TRANSLATION ACCESS:       9273  HIT:       2179  MISS:       7094  HIT %:    23.4983  MISS %:    76.5017   MPKI: 0.14188
LLC TRANSLATION FROM L1D PREFETCHER ACCESS:        373  HIT:         90  MISS:        283  HIT %:    24.1287  MISS %:    75.8713   MPKI: 0.00566
LLC AVERAGE MISS LATENCY: 241.58 cycles
LLC RQ	ACCESS:    1423456	FORWARD:          0	MERGED:          0	TO_CACHE:    1423453
LLC WQ	ACCESS:    1095297	FORWARD:          3	MERGED:          0	TO_CACHE:    1095297
LLC PQ	ACCESS:    2757446	FORWARD:          0	MERGED:       3696	TO_CACHE:    2753750

LLC Dense regions hint to LLC: 0

RAW hits: 1349725
Loads Generated: 12456735
Loads sent to L1D: 11107010
Stores Generated: 8887926
Stores sent to L1D: 8887929
Major fault: 0 Minor fault: 23677
Allocated PAGES: 23677



Printing Logs
statHeadFound: 1225724
statHeadMissing: 1902375
statStreamBufferHit: 12410626
statPrefetchEntryFound: 6381941
statCompactorMatch: 12582144
statStreamTrackerLookup: 15538725
statRecord: 2956581
statGetPointer: 3128099
statEnqueuePrefetch: 18097294
statPrefetchQueueIsFull: 14
StreamBufferHitRate: 0.79869
Regions' size: 1598
next_region_correct: 2405080
next_region_wrong: 549895
next_region_correct_prediction: 0.813909
statStreamBufferLookups: 155387250
statL1iLookups: 144778352
statCompactorLookups: 248619600
------------------
Depth Distribution
------------------
depth 0: 0
depth 1: 6074734
depth 2: 3022662
depth 3: 1125309
depth 4: 651205
depth 5: 501278
depth 6: 351650
depth 7: 197147
depth 8: 105048
depth 9: 17944
depth 10: 317
depth 11: 0
depth 12: 0
depth 13: 0
depth 14: 0
depth 15: 0
depth 16: 0
depth 17: 0
depth 18: 0
depth 19: 0
depth 20: 0
depth 21: 0
depth 22: 0
depth 23: 0
depth 24: 0
depth 25: 0
depth 26: 0
depth 27: 0
depth 28: 0
depth 29: 0
Total: 12047294
-----------------------------
-----------------------------
	Captured at Filter
-----------------------------
depth 0: 0
depth 1: 502530
depth 2: 348531
depth 3: 162322
depth 4: 52065
depth 5: 19438
depth 6: 6877
depth 7: 4801
depth 8: 762
depth 9: 121
depth 10: 3
depth 11: 0
depth 12: 0
depth 13: 0
depth 14: 0
depth 15: 0
depth 16: 0
depth 17: 0
depth 18: 0
depth 19: 0
depth 20: 0
depth 21: 0
depth 22: 0
depth 23: 0
depth 24: 0
depth 25: 0
depth 26: 0
depth 27: 0
depth 28: 0
depth 29: 0
-----------------------------
-----------------------------
		Lost at Page
-----------------------------
depth 0: 0
depth 1: 254264
depth 2: 117838
depth 3: 36201
depth 4: 33784
depth 5: 36188
depth 6: 31956
depth 7: 22144
depth 8: 13822
depth 9: 2779
depth 10: 65
depth 11: 0
depth 12: 0
depth 13: 0
depth 14: 0
depth 15: 0
depth 16: 0
depth 17: 0
depth 18: 0
depth 19: 0
depth 20: 0
depth 21: 0
depth 22: 0
depth 23: 0
depth 24: 0
depth 25: 0
depth 26: 0
depth 27: 0
depth 28: 0
depth 29: 0
-----------------------------
-----------------------------
	Lost due to PQ Size
-----------------------------
59795
-----------------------------
ST read accesses: 1263597467
ST write accesses: 90816499
PT read accesses: 52436494
PT write accesses: 4377759
FILTER read accesses: 11448322
FILTER write accesses: 2340418
GHR read accesses: 2676659
GHR write accesses: 277249
GHR counter read accesses: 43904002
GHR counter write accesses: 3689013

DRAM Statistics
 CHANNEL 0
 RQ ROW_BUFFER_HIT:     418602  ROW_BUFFER_MISS:     875987
 DBUS_CONGESTED:        402
 WQ ROW_BUFFER_HIT:     203836  ROW_BUFFER_MISS:     703621  FULL:        334

 AVG_CONGESTED_CYCLE: 3

CPU 0 Branch Prediction Accuracy: 99.8317% MPKI: 0.27564 Average ROB Occupancy at Mispredict: 110.709
Branch types
NOT_BRANCH: 41811034 83.6221%
BRANCH_DIRECT_JUMP: 445734 0.891468%
BRANCH_INDIRECT: 48875 0.09775%
BRANCH_CONDITIONAL: 5859379 11.7188%
BRANCH_DIRECT_CALL: 758262 1.51652%
BRANCH_INDIRECT_CALL: 159103 0.318206%
BRANCH_RETURN: 917368 1.83474%
BRANCH_OTHER: 0 0%

DRAM PAGES: 1048576
Allocated PAGES: 23677
