Initialize SIGNATURE TABLE
ST_SET: 1
ST_WAY: 16
ST_TAG_BIT: 16
ST_TAG_MASK: ffff

Initialize PATTERN TABLE
PT_SET: 16
PT_WAY: 4
SIG_DELTA_BIT: 7
C_SIG_BIT: 4
C_DELTA_BIT: 4

Initialize PREFETCH FILTER
FILTER_SET: 1024

Initialize PERCEPTRON
PERC_ENTRIES: 4096
PERC_FEATURES: 9

*** ChampSim Multicore Out-of-Order Simulator ***

Warmup Instructions: 50000000
Simulation Instructions: 50000000
Number of CPUs: 1
LLC sets: 2048
LLC ways: 16
Off-chip DRAM Size: 4096 MB Channels: 1 Width: 64-bit Data Rate: 6400 MT/s
CPU 0 runs ../IPC-traces//server_029.champsimtrace.xz
.xz
NUM_OF_IPS_IN_CRITICAL_IP_TRAINING: 64
NUM_OF_CRITICAL_IP_TRAINING_TABLE_WAYS: 2
NUM_OF_CRITICAL_IP_TRAINING_TABLE_SETS: 32
WOBBLY_CRITICAL_IP_CACHE_SETS: 32
WOBBLY_CRITICAL_IP_CACHE_WAYS: 4
BTB has LRU replacement policy
ITLB has LRU replacement policy
DTLB has LRU replacement policy
STLB has LRU replacement policy
CPU 0 L1I next line prefetcher
L1I has LRU replacement policy
L1D has LRU replacement policy
PERC_ENTRIES: 4096
Initialize SRRIP state for L2C
Initialize DRRIP state for LLC
Heartbeat CPU 0 instructions: 10000001 cycles: 2922395 heartbeat IPC: 3.42185 cumulative IPC: 3.42185 (Simulation time: 0 hr 3 min 16 sec) 
Heartbeat CPU 0 instructions: 20000000 cycles: 5841497 heartbeat IPC: 3.42571 cumulative IPC: 3.42378 (Simulation time: 0 hr 6 min 11 sec) 
Heartbeat CPU 0 instructions: 30000000 cycles: 8761670 heartbeat IPC: 3.42445 cumulative IPC: 3.424 (Simulation time: 0 hr 8 min 54 sec) 
Heartbeat CPU 0 instructions: 40000001 cycles: 11685470 heartbeat IPC: 3.42021 cumulative IPC: 3.42305 (Simulation time: 0 hr 11 min 19 sec) 
Heartbeat CPU 0 instructions: 50000002 cycles: 14609099 heartbeat IPC: 3.42041 cumulative IPC: 3.42252 (Simulation time: 0 hr 13 min 33 sec) 

Warmup complete CPU 0 instructions: 50000002 cycles: 14609099 (Simulation time: 0 hr 13 min 33 sec) 

% increase in all ip prefetch 415.131
% increase in all ip prefetch -0.602195
Heartbeat CPU 0 instructions: 60000000 cycles: 31046590 heartbeat IPC: 0.608365 cumulative IPC: 0.608365 (Simulation time: 0 hr 16 min 25 sec) 
Heartbeat CPU 0 instructions: 70000000 cycles: 47504473 heartbeat IPC: 0.607612 cumulative IPC: 0.607988 (Simulation time: 0 hr 19 min 11 sec) 
Heartbeat CPU 0 instructions: 80000002 cycles: 63814825 heartbeat IPC: 0.613108 cumulative IPC: 0.609685 (Simulation time: 0 hr 22 min 1 sec) 
*** Reached end of trace for Core: 0 Repeating trace: ../IPC-traces//server_029.champsimtrace.xz
Heartbeat CPU 0 instructions: 90000000 cycles: 79969411 heartbeat IPC: 0.619019 cumulative IPC: 0.611992 (Simulation time: 0 hr 24 min 37 sec) 
Heartbeat CPU 0 instructions: 100000001 cycles: 96132205 heartbeat IPC: 0.618705 cumulative IPC: 0.613323 (Simulation time: 0 hr 27 min 29 sec) 
Finished CPU 0 instructions: 50000002 cycles: 81523107 cumulative IPC: 0.613323 (Simulation time: 0 hr 27 min 29 sec) 

ChampSim completed all CPUs

Region of Interest Statistics

CPU 0 cumulative IPC: 0.613323 instructions: 50000002 cycles: 81523107

CPU 0 Average Load ROB stall cycles: 1.98262e+07
CPU 0 Fraction of times ROB stalled by Loads: 35.756
CPU 0 Percentage of Load stall cycles in Total stall cycles: 2.67506e+08
Issued all: 28172283
Issued LT all: 22258436
rob_not_full_when_issued_lt_all: 22113543
Issued LT one: 17361703
rob_not_full_when_issued_lt_one: 17238992
critical_ip_candidate_identification_operations: 6670208
critical_ip_candidate_identification_operation_per_cycle: 0.0818198
 Total stall cycles: 69129975
 Total load stall cycles: 184926590412944
Unique Load IPs: 11569
CPU 0 NUM of IPS identified critical: 5
CPU 0 Num of Load IPs stalling ROB: 10060
Threshold modification factor: -1
Max PIST entries: 64
Min PIST entries: 0
Avg PIST entries: 32
Trouble in retire width: 0.890272
MaC = Marked as critical.
lt_50_percent_before_Mac: 5
gt_90_percent_before_Mac: 0
gt_75_percent_before_Mac: 0
gt_50_percent_before_Mac: 0
stall_proportion_bin_same_before_after: 0
stall_proportion_bin_lower_before_after: 0
stall_proportion_bin_upper_before_after: 0
average_stall_proportion_before: 0.12745
average_stall_proportion_after: 0.125835
Critical IP stalls, total frequency: 89570
Non-critical IP stalls, total frequency: 3245534
Total Freq all stalling IPs: 3335104
Critical_IP_Detector_Accuracy_70: 0.8
Critical_IP_Detector_Accuracy_80: 0.8
Critical_IP_Detector_Accuracy_90: 1
Critical_IP_Detector_Coverage_70: 0.00325468
Critical_IP_Detector_Coverage_80: 0.00239664
Critical_IP_Detector_Coverage_90: 0.00229358
stat_90_percent_critical_ip_stalls_freq: 3001622
stat_90_percent_non_critical_ip_stalls_freq: 333482
AVERAGE_ROB_Occupancy_90_Percent_Critical_IP_Stalls: 48.7409
AVERAGE_ROB_Occupancy_90_Percent_Non_Critical_IP_Stalls: 36.2864
Critical_IP_ROB_Stalls_Bucket_0: 6255
Non-critical_IP_ROB_Stalls_Bucket_0: 2261338
Critical_IP_ROB_Stalls_Bucket_1: 19549
Non-critical_IP_ROB_Stalls_Bucket_1: 683341
Critical_IP_ROB_Stalls_Bucket_2: 37324
Non-critical_IP_ROB_Stalls_Bucket_2: 219969
Critical_IP_ROB_Stalls_Bucket_3: 12506
Non-critical_IP_ROB_Stalls_Bucket_3: 53066
Critical_IP_ROB_Stalls_Bucket_4: 5229
Non-critical_IP_ROB_Stalls_Bucket_4: 17378
Critical_IP_ROB_Stalls_Bucket_5: 3102
Non-critical_IP_ROB_Stalls_Bucket_5: 6965
Critical_IP_ROB_Stalls_Bucket_6: 5605
Non-critical_IP_ROB_Stalls_Bucket_6: 3477
0 => IPs accounting for >50 percent of stalls, 1 => 55, 2 => 60, 3 => 65 and so on till 90.
percent50: 50.0201 num IPs:  414
percent55: 55.0006 num IPs: 592
percent60: 60.0091 num IPs: 800
percent65: 65.0131 num IPs: 1012
percent70: 70.0037 num IPs: 1229
percent75: 75.0069 num IPs: 1447
percent80: 80.017 num IPs: 1669
percent85: 85.0166 num IPs: 1901
percent90: 90.0004 num IPs: 2180
Critical_ROB_Stalls_Percent_0_Bucket_0: 981806
Non-critical_ROB_Stalls_Percent_0_Bucket_0: 1285787
Critical_ROB_Stalls_Percent_0_Bucket_1: 412688
Non-critical_ROB_Stalls_Percent_0_Bucket_1: 290202
Critical_ROB_Stalls_Percent_0_Bucket_2: 183227
Non-critical_ROB_Stalls_Percent_0_Bucket_2: 74066
Critical_ROB_Stalls_Percent_0_Bucket_3: 54767
Non-critical_ROB_Stalls_Percent_0_Bucket_3: 10805
Critical_ROB_Stalls_Percent_0_Bucket_4: 18876
Non-critical_ROB_Stalls_Percent_0_Bucket_4: 3731
Critical_ROB_Stalls_Percent_0_Bucket_5: 8620
Non-critical_ROB_Stalls_Percent_0_Bucket_5: 1447
Critical_ROB_Stalls_Percent_0_Bucket_6: 8236
Non-critical_ROB_Stalls_Percent_0_Bucket_6: 846
Critical_ROB_Stalls_Percent_1_Bucket_0: 1099657
Non-critical_ROB_Stalls_Percent_1_Bucket_0: 1167936
Critical_ROB_Stalls_Percent_1_Bucket_1: 446991
Non-critical_ROB_Stalls_Percent_1_Bucket_1: 255899
Critical_ROB_Stalls_Percent_1_Bucket_2: 193264
Non-critical_ROB_Stalls_Percent_1_Bucket_2: 64029
Critical_ROB_Stalls_Percent_1_Bucket_3: 56996
Non-critical_ROB_Stalls_Percent_1_Bucket_3: 8576
Critical_ROB_Stalls_Percent_1_Bucket_4: 20099
Non-critical_ROB_Stalls_Percent_1_Bucket_4: 2508
Critical_ROB_Stalls_Percent_1_Bucket_5: 8938
Non-critical_ROB_Stalls_Percent_1_Bucket_5: 1129
Critical_ROB_Stalls_Percent_1_Bucket_6: 8380
Non-critical_ROB_Stalls_Percent_1_Bucket_6: 702
Critical_ROB_Stalls_Percent_2_Bucket_0: 1204726
Non-critical_ROB_Stalls_Percent_2_Bucket_0: 1062867
Critical_ROB_Stalls_Percent_2_Bucket_1: 491506
Non-critical_ROB_Stalls_Percent_2_Bucket_1: 211384
Critical_ROB_Stalls_Percent_2_Bucket_2: 208225
Non-critical_ROB_Stalls_Percent_2_Bucket_2: 49068
Critical_ROB_Stalls_Percent_2_Bucket_3: 59331
Non-critical_ROB_Stalls_Percent_2_Bucket_3: 6241
Critical_ROB_Stalls_Percent_2_Bucket_4: 20248
Non-critical_ROB_Stalls_Percent_2_Bucket_4: 2359
Critical_ROB_Stalls_Percent_2_Bucket_5: 8939
Non-critical_ROB_Stalls_Percent_2_Bucket_5: 1128
Critical_ROB_Stalls_Percent_2_Bucket_6: 8380
Non-critical_ROB_Stalls_Percent_2_Bucket_6: 702
Critical_ROB_Stalls_Percent_3_Bucket_0: 1324900
Non-critical_ROB_Stalls_Percent_3_Bucket_0: 942693
Critical_ROB_Stalls_Percent_3_Bucket_1: 527254
Non-critical_ROB_Stalls_Percent_3_Bucket_1: 175636
Critical_ROB_Stalls_Percent_3_Bucket_2: 218945
Non-critical_ROB_Stalls_Percent_3_Bucket_2: 38348
Critical_ROB_Stalls_Percent_3_Bucket_3: 59503
Non-critical_ROB_Stalls_Percent_3_Bucket_3: 6069
Critical_ROB_Stalls_Percent_3_Bucket_4: 20323
Non-critical_ROB_Stalls_Percent_3_Bucket_4: 2284
Critical_ROB_Stalls_Percent_3_Bucket_5: 8940
Non-critical_ROB_Stalls_Percent_3_Bucket_5: 1127
Critical_ROB_Stalls_Percent_3_Bucket_6: 8380
Non-critical_ROB_Stalls_Percent_3_Bucket_6: 702
Critical_ROB_Stalls_Percent_4_Bucket_0: 1452823
Non-critical_ROB_Stalls_Percent_4_Bucket_0: 814770
Critical_ROB_Stalls_Percent_4_Bucket_1: 558492
Non-critical_ROB_Stalls_Percent_4_Bucket_1: 144398
Critical_ROB_Stalls_Percent_4_Bucket_2: 226107
Non-critical_ROB_Stalls_Percent_4_Bucket_2: 31186
Critical_ROB_Stalls_Percent_4_Bucket_3: 59631
Non-critical_ROB_Stalls_Percent_4_Bucket_3: 5941
Critical_ROB_Stalls_Percent_4_Bucket_4: 20331
Non-critical_ROB_Stalls_Percent_4_Bucket_4: 2276
Critical_ROB_Stalls_Percent_4_Bucket_5: 8940
Non-critical_ROB_Stalls_Percent_4_Bucket_5: 1127
Critical_ROB_Stalls_Percent_4_Bucket_6: 8380
Non-critical_ROB_Stalls_Percent_4_Bucket_6: 702
Critical_ROB_Stalls_Percent_5_Bucket_0: 1581944
Non-critical_ROB_Stalls_Percent_5_Bucket_0: 685649
Critical_ROB_Stalls_Percent_5_Bucket_1: 586917
Non-critical_ROB_Stalls_Percent_5_Bucket_1: 115973
Critical_ROB_Stalls_Percent_5_Bucket_2: 234466
Non-critical_ROB_Stalls_Percent_5_Bucket_2: 22827
Critical_ROB_Stalls_Percent_5_Bucket_3: 60495
Non-critical_ROB_Stalls_Percent_5_Bucket_3: 5077
Critical_ROB_Stalls_Percent_5_Bucket_4: 20418
Non-critical_ROB_Stalls_Percent_5_Bucket_4: 2189
Critical_ROB_Stalls_Percent_5_Bucket_5: 8946
Non-critical_ROB_Stalls_Percent_5_Bucket_5: 1121
Critical_ROB_Stalls_Percent_5_Bucket_6: 8389
Non-critical_ROB_Stalls_Percent_5_Bucket_6: 693
Critical_ROB_Stalls_Percent_6_Bucket_0: 1727872
Non-critical_ROB_Stalls_Percent_6_Bucket_0: 539721
Critical_ROB_Stalls_Percent_6_Bucket_1: 604115
Non-critical_ROB_Stalls_Percent_6_Bucket_1: 98775
Critical_ROB_Stalls_Percent_6_Bucket_2: 238114
Non-critical_ROB_Stalls_Percent_6_Bucket_2: 19179
Critical_ROB_Stalls_Percent_6_Bucket_3: 60775
Non-critical_ROB_Stalls_Percent_6_Bucket_3: 4797
Critical_ROB_Stalls_Percent_6_Bucket_4: 20445
Non-critical_ROB_Stalls_Percent_6_Bucket_4: 2162
Critical_ROB_Stalls_Percent_6_Bucket_5: 8953
Non-critical_ROB_Stalls_Percent_6_Bucket_5: 1114
Critical_ROB_Stalls_Percent_6_Bucket_6: 8393
Non-critical_ROB_Stalls_Percent_6_Bucket_6: 689
Critical_ROB_Stalls_Percent_7_Bucket_0: 1873992
Non-critical_ROB_Stalls_Percent_7_Bucket_0: 393601
Critical_ROB_Stalls_Percent_7_Bucket_1: 621124
Non-critical_ROB_Stalls_Percent_7_Bucket_1: 81766
Critical_ROB_Stalls_Percent_7_Bucket_2: 241641
Non-critical_ROB_Stalls_Percent_7_Bucket_2: 15652
Critical_ROB_Stalls_Percent_7_Bucket_3: 60828
Non-critical_ROB_Stalls_Percent_7_Bucket_3: 4744
Critical_ROB_Stalls_Percent_7_Bucket_4: 20459
Non-critical_ROB_Stalls_Percent_7_Bucket_4: 2148
Critical_ROB_Stalls_Percent_7_Bucket_5: 8953
Non-critical_ROB_Stalls_Percent_7_Bucket_5: 1114
Critical_ROB_Stalls_Percent_7_Bucket_6: 8411
Non-critical_ROB_Stalls_Percent_7_Bucket_6: 671
Critical_ROB_Stalls_Percent_8_Bucket_0: 2008666
Non-critical_ROB_Stalls_Percent_8_Bucket_0: 258927
Critical_ROB_Stalls_Percent_8_Bucket_1: 645770
Non-critical_ROB_Stalls_Percent_8_Bucket_1: 57120
Critical_ROB_Stalls_Percent_8_Bucket_2: 245317
Non-critical_ROB_Stalls_Percent_8_Bucket_2: 11976
Critical_ROB_Stalls_Percent_8_Bucket_3: 62314
Non-critical_ROB_Stalls_Percent_8_Bucket_3: 3258
Critical_ROB_Stalls_Percent_8_Bucket_4: 21291
Non-critical_ROB_Stalls_Percent_8_Bucket_4: 1316
Critical_ROB_Stalls_Percent_8_Bucket_5: 9463
Non-critical_ROB_Stalls_Percent_8_Bucket_5: 604
Critical_ROB_Stalls_Percent_8_Bucket_6: 8801
Non-critical_ROB_Stalls_Percent_8_Bucket_6: 281
Average ROB occupancy Load Stall Begin: 38.4923
Average ROB occupancy Load Stall End: 47.4956
Min ROB occupancy Load Stall Begin: 1
Max ROB occupancy Load Stall Begin: 352
Min ROB occupancy Load Stall End: 1
Max ROB occupancy Load Stall End: 352
Average ROB occupancy Critical Load Stall Begin: 135.957
Average ROB occupancy Critical Load Stall End: 140.863
Min ROB occupancy Critical Load Stall Begin: 3
Max ROB occupancy Critical Load Stall Begin: 352
Min ROB occupancy Critical Load Stall End: 3
Max ROB occupancy Critical Load Stall End: 352
 ROB Load Stall Begin Bucket Count 0: 2533054
 ROB Load Stall End Bucket Count 0: 2267593
 ROB Critical Load Stall Begin Bucket Count 0: 6113
 ROB Critical Load Stall End Bucket Count 0: 5368
 ROB Load Stall Begin Bucket Count 1: 523124
 ROB Load Stall End Bucket Count 1: 702890
 ROB Critical Load Stall Begin Bucket Count 1: 19632
 ROB Critical Load Stall End Bucket Count 1: 17782
 ROB Load Stall Begin Bucket Count 2: 195239
 ROB Load Stall End Bucket Count 2: 257293
 ROB Critical Load Stall Begin Bucket Count 2: 32203
 ROB Critical Load Stall End Bucket Count 2: 33016
 ROB Load Stall Begin Bucket Count 3: 49933
 ROB Load Stall End Bucket Count 3: 65572
 ROB Critical Load Stall Begin Bucket Count 3: 9703
 ROB Critical Load Stall End Bucket Count 3: 11138
 ROB Load Stall Begin Bucket Count 4: 17809
 ROB Load Stall End Bucket Count 4: 22607
 ROB Critical Load Stall Begin Bucket Count 4: 4650
 ROB Critical Load Stall End Bucket Count 4: 4745
 ROB Load Stall Begin Bucket Count 5: 8122
 ROB Load Stall End Bucket Count 5: 10067
 ROB Critical Load Stall Begin Bucket Count 5: 2751
 ROB Critical Load Stall End Bucket Count 5: 2829
 ROB Load Stall Begin Bucket Count 6: 7823
 ROB Load Stall End Bucket Count 6: 9082
 ROB Critical Load Stall Begin Bucket Count 6: 5021
 ROB Critical Load Stall End Bucket Count 6: 5195
PIST Tag Read Accesses: 2472908
PIST Read Accesses: 1236454
PIST Tag Write Accesses: 2472908
PIST Write Accesses: 1236454
Criticality detector called times: 3255031
Max global_stall_cycles_count: 2231205
Threshold Modified: 1 times, factor: -1
Sturdy critical IP cache stats: 
 Unused entries: 0
CIC Tag Read Accesses: 0
CIC Read Accesses: 0
CIC Tag Write Accesses: 0
CIC Write Accesses: 0
Wobbly critical IP cache stats: 
 Unused entries: 123
CIC Tag Read Accesses: 82561797
CIC Read Accesses: 0
CIC Tag Write Accesses: 5
CIC Write Accesses: 0
ITLB TOTAL     ACCESS:   10472963  HIT:    9738321  MISS:     734642  HIT %:    92.9853  MISS %:    7.01465   MPKI: 14.6928
ITLB LOAD TRANSLATION ACCESS:    8323777  HIT:    8276092  MISS:      47685  HIT %:    99.4271  MISS %:   0.572877   MPKI: 0.9537
ITLB TRANSLATION FROM L1D PREFETCHER ACCESS:    2149186  HIT:    1462229  MISS:     686957  HIT %:    68.0364  MISS %:    31.9636   MPKI: 13.7391
ITLBprefetch_cycle_count: 0 prefetches_per_prefetch_cycle: -nan
ITLB PREFETCH  REQUESTED:          0  ISSUED:          0  USEFUL:     554905  USELESS:     132053
ITLB USEFUL LOAD PREFETCHES:     554905 PREFETCH ISSUED TO LOWER LEVEL:          0  ACCURACY: inf
ITLB TIMELY PREFETCHES:     554905 LATE PREFETCHES: 65 DROPPED PREFETCHES: 5215
ITLB PREFETCHES SAME FILL-ORIGIN LEVEL: 0 DIFFERENT FILL-ORIGIN LEVEL: 0
ITLB AVERAGE MISS LATENCY: 5238.58 cycles
ITLB RQ	ACCESS:   15873885	FORWARD:          0	MERGED:    5351069	TO_CACHE:   10522816

DTLB TOTAL     ACCESS:   11095479  HIT:   10550988  MISS:     544491  HIT %:    95.0927  MISS %:    4.90732   MPKI: 10.8898
DTLB LOAD TRANSLATION ACCESS:   11095479  HIT:   10550988  MISS:     544491  HIT %:    95.0927  MISS %:    4.90732   MPKI: 10.8898
DTLBprefetch_cycle_count: 0 prefetches_per_prefetch_cycle: -nan
DTLB PREFETCH  REQUESTED:          0  ISSUED:          0  USEFUL:          0  USELESS:          0
DTLB USEFUL LOAD PREFETCHES:          0 PREFETCH ISSUED TO LOWER LEVEL:          0  ACCURACY: -nan
DTLB TIMELY PREFETCHES:          0 LATE PREFETCHES: 0 DROPPED PREFETCHES: 0
DTLB PREFETCHES SAME FILL-ORIGIN LEVEL: 0 DIFFERENT FILL-ORIGIN LEVEL: 0
DTLB AVERAGE MISS LATENCY: 11.7476 cycles
DTLB RQ	ACCESS:   14602013	FORWARD:          0	MERGED:    3479477	TO_CACHE:   11122536

STLB TOTAL     ACCESS:    1279133  HIT:    1264606  MISS:      14527  HIT %:    98.8643  MISS %:    1.13569   MPKI: 0.29054
STLB LOAD TRANSLATION ACCESS:     592111  HIT:     579060  MISS:      13051  HIT %:    97.7959  MISS %:    2.20415   MPKI: 0.26102
STLB TRANSLATION FROM L1D PREFETCHER ACCESS:     687022  HIT:     685546  MISS:       1476  HIT %:    99.7852  MISS %:    0.21484   MPKI: 0.02952
STLBprefetch_cycle_count: 0 prefetches_per_prefetch_cycle: -nan
STLB PREFETCH  REQUESTED:          0  ISSUED:          0  USEFUL:       1308  USELESS:        173
STLB USEFUL LOAD PREFETCHES:       1308 PREFETCH ISSUED TO LOWER LEVEL:          0  ACCURACY: inf
STLB TIMELY PREFETCHES:       1308 LATE PREFETCHES: 0 DROPPED PREFETCHES: 5215
STLB PREFETCHES SAME FILL-ORIGIN LEVEL: 0 DIFFERENT FILL-ORIGIN LEVEL: 0
STLB AVERAGE MISS LATENCY: 110.838 cycles
STLB RQ	ACCESS:    1284348	FORWARD:          0	MERGED:          0	TO_CACHE:    1284348

STLB Hit, L1D data hit: 0
STLB Hit, L2C data hit: 0
STLB Hit, LLC data hit: 0
STLB Hit, LLC data miss: 0
STLB STLB hints to L2: 0
L1D TOTAL     ACCESS:   14026796  HIT:   12564002  MISS:    1462794  HIT %:    89.5714  MISS %:    10.4286   MPKI: 29.2559
L1D LOAD      ACCESS:    7850647  HIT:    6698438  MISS:    1152209  HIT %:    85.3234  MISS %:    14.6766   MPKI: 23.0442
L1D RFO       ACCESS:    6176149  HIT:    5865564  MISS:     310585  HIT %:    94.9712  MISS %:    5.02878   MPKI: 6.2117
L1Dprefetch_cycle_count: 0 prefetches_per_prefetch_cycle: -nan
L1D PREFETCH  REQUESTED:          0  ISSUED:          0  USEFUL:          0  USELESS:          0
L1D USEFUL LOAD PREFETCHES:          0 PREFETCH ISSUED TO LOWER LEVEL:          0  ACCURACY: -nan
L1D TIMELY PREFETCHES:          0 LATE PREFETCHES: 0 DROPPED PREFETCHES: 0
L1D PREFETCHES SAME FILL-ORIGIN LEVEL: 0 DIFFERENT FILL-ORIGIN LEVEL: 0
L1D AVERAGE MISS LATENCY: 24.3501 cycles
L1D RQ	ACCESS:   11203963	FORWARD:          0	MERGED:    3152616	TO_CACHE:    7903819
L1D WQ	ACCESS:    6772786	FORWARD:     147528	MERGED:      74592	TO_CACHE:    6698194

L1D UNIQUE REGIONS ACCESSED: 0
L1D REGIONS CONFLICTS: 0
L1D Cross Page Prefetch Requests: 0
L1D Same Page Prefetch Requests: 0
L1D ROI Sum of L1D PQ occupancy: 0
L1D PREFETCHES PUSHED FROM L2C: 0
L1I TOTAL     ACCESS:   15775210  HIT:   11538181  MISS:    4237029  HIT %:    73.1412  MISS %:    26.8588   MPKI: 84.7406
L1I LOAD      ACCESS:    9774592  HIT:    9699984  MISS:      74608  HIT %:    99.2367  MISS %:   0.763285   MPKI: 1.49216
L1I PREFETCH  ACCESS:    6000618  HIT:    1838197  MISS:    4162421  HIT %:    30.6335  MISS %:    69.3665   MPKI: 83.2484
L1Iprefetch_cycle_count: 0 prefetches_per_prefetch_cycle: inf
L1I PREFETCH  REQUESTED:    6251644  ISSUED:    6234946  USEFUL:    2964413  USELESS:    1198047
L1I USEFUL LOAD PREFETCHES:    2964413 PREFETCH ISSUED TO LOWER LEVEL:    4182590  ACCURACY: 70.8751
L1I TIMELY PREFETCHES:    2964413 LATE PREFETCHES: 12870 DROPPED PREFETCHES: 11522
L1I PREFETCHES SAME FILL-ORIGIN LEVEL: 4182590 DIFFERENT FILL-ORIGIN LEVEL: 0
L1I AVERAGE MISS LATENCY: 166032 cycles
L1I RQ	ACCESS:   13577664	FORWARD:          0	MERGED:    3794130	TO_CACHE:    9783534
L1I PQ	ACCESS:    6234946	FORWARD:          0	MERGED:     144595	TO_CACHE:    6090351

BTB TOTAL     ACCESS:    6128559  HIT:    4286220  MISS:    1842339  HIT %:    69.9385  MISS %:    30.0615   MPKI: 36.8468
BTB BRANCH_DIRECT_JUMP	ACCESS:     525208  HIT:     377778  MISS:     147430
BTB BRANCH_INDIRECT	ACCESS:     166358  HIT:     130843  MISS:      35515
BTB BRANCH_CONDITIONAL	ACCESS:    3088487  HIT:    2580552  MISS:     507935
BTB BRANCH_DIRECT_CALL	ACCESS:     989266  HIT:     628306  MISS:     360960
BTB BRANCH_INDIRECT_CALL	ACCESS:     184984  HIT:     116407  MISS:      68577
BTB BRANCH_RETURN	ACCESS:    1174256  HIT:     452334  MISS:     721922
BTB BRANCH_OTHER ACCESS:          0  HIT:          0  MISS:          0

L2C TOTAL     ACCESS:   11455647  HIT:    8860540  MISS:    2595107  HIT %:    77.3465  MISS %:    22.6535   MPKI: 51.9021
L2C LOAD      ACCESS:    1213946  HIT:     948161  MISS:     265785  HIT %:    78.1057  MISS %:    21.8943   MPKI: 5.3157
L2C DATA LOAD MPKI: 5.06292
L2C INSTRUCTION LOAD MPKI: 0.25278
L2C RFO       ACCESS:     310584  HIT:     206491  MISS:     104093  HIT %:    66.4848  MISS %:    33.5152   MPKI: 2.08186
L2C PREFETCH  ACCESS:    9307428  HIT:    7167829  MISS:    2139599  HIT %:    77.0119  MISS %:    22.9881   MPKI: 42.792
L2C DATA PREFETCH MPKI: 26.1725
L2C INSTRUCTION PREFETCH MPKI: 16.6195
L2C WRITEBACK ACCESS:     593475  HIT:     525191  MISS:      68284  HIT %:    88.4942  MISS %:    11.5058   MPKI: 1.36568
L2C LOAD TRANSLATION ACCESS:      19626  HIT:       4178  MISS:      15448  HIT %:    21.2881  MISS %:    78.7119   MPKI: 0.30896
L2C TRANSLATION FROM L1D PREFETCHER ACCESS:      10588  HIT:       8690  MISS:       1898  HIT %:     82.074  MISS %:     17.926   MPKI: 0.03796
L2Cprefetch_cycle_count: 4408022 prefetches_per_prefetch_cycle: 1.74317
L2C PREFETCH  REQUESTED:    7684508  ISSUED:    7683943  USEFUL:     104541  USELESS:    2036599
L2C USEFUL LOAD PREFETCHES:     104541 PREFETCH ISSUED TO LOWER LEVEL:    2242961  ACCURACY: 4.66085
L2C TIMELY PREFETCHES:     104541 LATE PREFETCHES: 37293 DROPPED PREFETCHES: 0
L2C PREFETCHES SAME FILL-ORIGIN LEVEL: 1363615 DIFFERENT FILL-ORIGIN LEVEL: 66068
L2C AVERAGE MISS LATENCY: 33.1954 cycles
L2C RQ	ACCESS:    1554746	FORWARD:          0	MERGED:          0	TO_CACHE:    1554744
L2C WQ	ACCESS:     593475	FORWARD:          2	MERGED:          0	TO_CACHE:     593475
L2C PQ	ACCESS:   11859234	FORWARD:          0	MERGED:    2388516	TO_CACHE:    9470718

L2C Instructions Evicting Data 555451
L2C Translations Evicting Data 12643
L2C Data Evicting Data 1120997
L2C Instructions Evicting Instructions 283393
L2C Translations Evicting Instructions 4426
L2C Data Evicting Instructions 532909
L2C Instructions Evicting Translations 4769
L2C Translations Evicting Translations 277
L2C Data Evicting Translations 11958
L2C Dense regions hint from L2: 0
PSCL5 TOTAL     ACCESS:      19742  HIT:      19742  MISS:          0  HIT %:        100  MISS %:          0   MPKI: 0
PSCL5 LOAD TRANSLATION ACCESS:      13051  HIT:      13051  MISS:          0  HIT %:        100  MISS %:          0   MPKI: 0
PSCL5 TRANSLATION FROM L1D PREFETCHER ACCESS:       6691  HIT:       6691  MISS:          0  HIT %:        100  MISS %:          0   MPKI: 0
PSCL5prefetch_cycle_count: 0 prefetches_per_prefetch_cycle: -nan
PSCL5 PREFETCH  REQUESTED:          0  ISSUED:          0  USEFUL:          0  USELESS:          0
PSCL5 USEFUL LOAD PREFETCHES:          0 PREFETCH ISSUED TO LOWER LEVEL:          0  ACCURACY: -nan
PSCL5 TIMELY PREFETCHES:          0 LATE PREFETCHES: 0 DROPPED PREFETCHES: 0
PSCL5 PREFETCHES SAME FILL-ORIGIN LEVEL: 0 DIFFERENT FILL-ORIGIN LEVEL: 0

PSCL4 TOTAL     ACCESS:      19098  HIT:      18924  MISS:        174  HIT %:    99.0889  MISS %:    0.91109   MPKI: 0.00348
PSCL4 LOAD TRANSLATION ACCESS:      12524  HIT:      12350  MISS:        174  HIT %:    98.6107  MISS %:    1.38933   MPKI: 0.00348
PSCL4 TRANSLATION FROM L1D PREFETCHER ACCESS:       6574  HIT:       6574  MISS:          0  HIT %:        100  MISS %:          0   MPKI: 0
PSCL4prefetch_cycle_count: 0 prefetches_per_prefetch_cycle: -nan
PSCL4 PREFETCH  REQUESTED:          0  ISSUED:          0  USEFUL:          0  USELESS:          0
PSCL4 USEFUL LOAD PREFETCHES:          0 PREFETCH ISSUED TO LOWER LEVEL:          0  ACCURACY: -nan
PSCL4 TIMELY PREFETCHES:          0 LATE PREFETCHES: 0 DROPPED PREFETCHES: 0
PSCL4 PREFETCHES SAME FILL-ORIGIN LEVEL: 0 DIFFERENT FILL-ORIGIN LEVEL: 0

PSCL3 TOTAL     ACCESS:      19637  HIT:      19462  MISS:        175  HIT %:    99.1088  MISS %:   0.891175   MPKI: 0.0035
PSCL3 LOAD TRANSLATION ACCESS:      13063  HIT:      12888  MISS:        175  HIT %:    98.6603  MISS %:    1.33966   MPKI: 0.0035
PSCL3 TRANSLATION FROM L1D PREFETCHER ACCESS:       6574  HIT:       6574  MISS:          0  HIT %:        100  MISS %:          0   MPKI: 0
PSCL3prefetch_cycle_count: 0 prefetches_per_prefetch_cycle: -nan
PSCL3 PREFETCH  REQUESTED:          0  ISSUED:          0  USEFUL:          0  USELESS:          0
PSCL3 USEFUL LOAD PREFETCHES:          0 PREFETCH ISSUED TO LOWER LEVEL:          0  ACCURACY: -nan
PSCL3 TIMELY PREFETCHES:          0 LATE PREFETCHES: 0 DROPPED PREFETCHES: 0
PSCL3 PREFETCHES SAME FILL-ORIGIN LEVEL: 0 DIFFERENT FILL-ORIGIN LEVEL: 0

PSCL2 TOTAL     ACCESS:      16685  HIT:       9744  MISS:       6941  HIT %:    58.3998  MISS %:    41.6002   MPKI: 0.13882
PSCL2 LOAD TRANSLATION ACCESS:      13699  HIT:       6758  MISS:       6941  HIT %:    49.3321  MISS %:    50.6679   MPKI: 0.13882
PSCL2 TRANSLATION FROM L1D PREFETCHER ACCESS:       2986  HIT:       2986  MISS:          0  HIT %:        100  MISS %:          0   MPKI: 0
PSCL2prefetch_cycle_count: 0 prefetches_per_prefetch_cycle: -nan
PSCL2 PREFETCH  REQUESTED:          0  ISSUED:          0  USEFUL:          0  USELESS:          0
PSCL2 USEFUL LOAD PREFETCHES:          0 PREFETCH ISSUED TO LOWER LEVEL:          0  ACCURACY: -nan
PSCL2 TIMELY PREFETCHES:          0 LATE PREFETCHES: 0 DROPPED PREFETCHES: 0
PSCL2 PREFETCHES SAME FILL-ORIGIN LEVEL: 0 DIFFERENT FILL-ORIGIN LEVEL: 0

LLC TOTAL     ACCESS:    2764286  HIT:    2689221  MISS:      75065  HIT %:    97.2845  MISS %:    2.71553   MPKI: 1.5013
LLC LOAD      ACCESS:     228846  HIT:     211631  MISS:      17215  HIT %:    92.4775  MISS %:    7.52253   MPKI: 0.3443
LLC RFO       ACCESS:     103715  HIT:      99637  MISS:       4078  HIT %:    96.0681  MISS %:    3.93193   MPKI: 0.08156
LLC PREFETCH  ACCESS:    2242770  HIT:    2192254  MISS:      50516  HIT %:    97.7476  MISS %:    2.25239   MPKI: 1.01032
LLC WRITEBACK ACCESS:     171609  HIT:     171216  MISS:        393  HIT %:     99.771  MISS %:   0.229009   MPKI: 0.00786
LLC LOAD TRANSLATION ACCESS:      15448  HIT:      12640  MISS:       2808  HIT %:    81.8229  MISS %:    18.1771   MPKI: 0.05616
LLC TRANSLATION FROM L1D PREFETCHER ACCESS:       1898  HIT:       1843  MISS:         55  HIT %:    97.1022  MISS %:    2.89779   MPKI: 0.0011
LLCprefetch_cycle_count: 0 prefetches_per_prefetch_cycle: -nan
LLC PREFETCH  REQUESTED:          0  ISSUED:          0  USEFUL:       1510  USELESS:      48075
LLC USEFUL LOAD PREFETCHES:       1510 PREFETCH ISSUED TO LOWER LEVEL:      50563  ACCURACY: 2.98637
LLC TIMELY PREFETCHES:       1510 LATE PREFETCHES: 47 DROPPED PREFETCHES: 0
LLC PREFETCHES SAME FILL-ORIGIN LEVEL: 2728 DIFFERENT FILL-ORIGIN LEVEL: 0
LLC AVERAGE MISS LATENCY: 151.903 cycles
LLC RQ	ACCESS:     349931	FORWARD:          0	MERGED:          0	TO_CACHE:     349907
LLC WQ	ACCESS:     171609	FORWARD:         26	MERGED:          0	TO_CACHE:     171609
LLC PQ	ACCESS:    2242961	FORWARD:          0	MERGED:         62	TO_CACHE:    2242897

LLC Dense regions hint to LLC: 0

RAW hits: 1107174
Loads Generated: 12311136
Loads sent to L1D: 11203963
Stores Generated: 6772779
Stores sent to L1D: 6772786
Major fault: 0 Minor fault: 6134
Allocated PAGES: 6134
I-Shadow cache 408 bytes
Touched + WorthPF tables 6144 bytes 
MMA filter 174 bytes 
FNL filter 272 bytes 
TOTAL PREFETCHER STORAGE SIZE: 25174 bytes
CPU 0 L1I next line prefetcher final stats
total_pref_operate_instances_l2: 5249089
dynamic_config_counter_instances_l2_1: 5233293
dynamic_config_counter_instances_l2_2: 8245
dynamic_config_counter_instances_l2_3: 7551
dynamic_config_counter_instances_l2_4: 0
dynamic_config_counter_instances_l2_5: 0
------------------
Depth Distribution
------------------
depth 0: 668502
depth 1: 329618
depth 2: 941400
depth 3: 7280789
depth 4: 926863
depth 5: 208506
depth 6: 10022
depth 7: 323
depth 8: 287
depth 9: 296
depth 10: 60
depth 11: 263
depth 12: 57
depth 13: 0
depth 14: 0
depth 15: 0
depth 16: 0
depth 17: 0
depth 18: 0
depth 19: 0
depth 20: 0
depth 21: 0
depth 22: 0
depth 23: 0
depth 24: 0
depth 25: 0
depth 26: 0
depth 27: 0
depth 28: 0
depth 29: 0
Total: 10366986
------------------
ST read accesses: 3849683
ST write accesses: 1399406
PT read accesses: 105430346
PT write accesses: 4657484
FILTER read accesses: 26529315
FILTER write accesses: 16572004
GHR read accesses: 14187791
GHR write accesses: 571506
PERC read accesses: 757911105
PERC write accesses: 57358679
GHR counter read accesses: 10498178
GHR counter write accesses: 17174305
GHR ip read accesses: 40043445
GHR ip write accesses: 20996356
ST tag read accesses: 173392081
ST tag write accesses: 29360854

DRAM Statistics
 CHANNEL 0
 RQ ROW_BUFFER_HIT:      19767  ROW_BUFFER_MISS:      54900
 DBUS_CONGESTED:        118
 WQ ROW_BUFFER_HIT:        965  ROW_BUFFER_MISS:       3970  FULL:          0

 AVG_CONGESTED_CYCLE: 4
 All warmup complete: 2
Channel 0 Bank busy for read cycles: 0
Channel 0 Bank busy for write cycles: 0
Channel 0
Rank 0
0banks busy for read cycles: 76457758
0banks busy for write cycles: 2894
1banks busy for read cycles: 2238870
1banks busy for write cycles: 459344
2banks busy for read cycles: 762837
2banks busy for write cycles: 133194
3banks busy for read cycles: 589343
3banks busy for write cycles: 52197
4banks busy for read cycles: 476888
4banks busy for write cycles: 19242
5banks busy for read cycles: 182595
5banks busy for write cycles: 10145
6banks busy for read cycles: 62513
6banks busy for write cycles: 4608
7banks busy for read cycles: 29379
7banks busy for write cycles: 1937
8banks busy for read cycles: 36429
8banks busy for write cycles: 2935

CPU 0 Branch Prediction Accuracy: 99.7245% MPKI: 0.51862 Average ROB Occupancy at Mispredict: 98.1486
Branch types
NOT_BRANCH: 40586702 81.1734%
BRANCH_DIRECT_JUMP: 525208 1.05042%
BRANCH_INDIRECT: 166358 0.332716%
BRANCH_CONDITIONAL: 6373095 12.7462%
BRANCH_DIRECT_CALL: 989266 1.97853%
BRANCH_INDIRECT_CALL: 184984 0.369968%
BRANCH_RETURN: 1174256 2.34851%
BRANCH_OTHER: 0 0%

DRAM PAGES: 1048576
Allocated PAGES: 6134
