
*** ChampSim Multicore Out-of-Order Simulator ***

Warmup Instructions: 50000000
Simulation Instructions: 50000000
Number of CPUs: 1
LLC sets: 2048
LLC ways: 16
Off-chip DRAM Size: 4096 MB Channels: 1 Width: 64-bit Data Rate: 6400 MT/s
CPU 0 runs ../IPC-traces//server_026.champsimtrace.xz
.xz
NUM_OF_IPS_IN_CRITICAL_IP_TRAINING: 64
NUM_OF_CRITICAL_IP_TRAINING_TABLE_WAYS: 2
NUM_OF_CRITICAL_IP_TRAINING_TABLE_SETS: 32
WOBBLY_CRITICAL_IP_CACHE_SETS: 32
WOBBLY_CRITICAL_IP_CACHE_WAYS: 4
BTB has LRU replacement policy
ITLB has LRU replacement policy
DTLB has LRU replacement policy
STLB has LRU replacement policy
CPU 0 L1I next line prefetcher
L1I has LRU replacement policy
IP Table Entries: 64
L1D has LRU replacement policy
Initialize SRRIP state for L2C
Initialize DRRIP state for LLC
Heartbeat CPU 0 instructions: 10000000 cycles: 2883307 heartbeat IPC: 3.46824 cumulative IPC: 3.46824 (Simulation time: 0 hr 5 min 27 sec) 
Heartbeat CPU 0 instructions: 20000002 cycles: 5764232 heartbeat IPC: 3.47111 cumulative IPC: 3.46967 (Simulation time: 0 hr 9 min 43 sec) 
Heartbeat CPU 0 instructions: 30000003 cycles: 8642195 heartbeat IPC: 3.47468 cumulative IPC: 3.47134 (Simulation time: 0 hr 14 min 6 sec) 
Heartbeat CPU 0 instructions: 40000001 cycles: 11523090 heartbeat IPC: 3.47114 cumulative IPC: 3.47129 (Simulation time: 0 hr 17 min 32 sec) 
Heartbeat CPU 0 instructions: 50000000 cycles: 14401700 heartbeat IPC: 3.4739 cumulative IPC: 3.47181 (Simulation time: 0 hr 20 min 40 sec) 

Warmup complete CPU 0 instructions: 50000004 cycles: 14401701 (Simulation time: 0 hr 20 min 40 sec) 

% increase in all ip prefetch 432.17
% increase in all ip prefetch 3.65946
*** Reached end of trace for Core: 0 Repeating trace: ../IPC-traces//server_026.champsimtrace.xz
Heartbeat CPU 0 instructions: 60000000 cycles: 30911215 heartbeat IPC: 0.605711 cumulative IPC: 0.605711 (Simulation time: 0 hr 23 min 47 sec) 
Heartbeat CPU 0 instructions: 70000001 cycles: 47197450 heartbeat IPC: 0.614016 cumulative IPC: 0.609835 (Simulation time: 0 hr 26 min 47 sec) 
Heartbeat CPU 0 instructions: 80000003 cycles: 63564261 heartbeat IPC: 0.610993 cumulative IPC: 0.61022 (Simulation time: 0 hr 29 min 51 sec) 
Heartbeat CPU 0 instructions: 90000002 cycles: 79824464 heartbeat IPC: 0.614998 cumulative IPC: 0.611408 (Simulation time: 0 hr 32 min 51 sec) 
Heartbeat CPU 0 instructions: 100000000 cycles: 96115864 heartbeat IPC: 0.613821 cumulative IPC: 0.611889 (Simulation time: 0 hr 36 min 35 sec) 
Finished CPU 0 instructions: 50000000 cycles: 81714164 cumulative IPC: 0.611889 (Simulation time: 0 hr 36 min 35 sec) 

ChampSim completed all CPUs

Region of Interest Statistics

CPU 0 cumulative IPC: 0.611889 instructions: 50000000 cycles: 81714164

CPU 0 Average Load ROB stall cycles: 1.98705e+07
CPU 0 Fraction of times ROB stalled by Loads: 35.892
CPU 0 Percentage of Load stall cycles in Total stall cycles: 2.85892e+08
Issued all: 28245599
Issued LT all: 22453029
rob_not_full_when_issued_lt_all: 22062041
Issued LT one: 17420858
rob_not_full_when_issued_lt_one: 17079814
 Total stall cycles: 68293976
 Total load stall cycles: 195246712507895
CPU 0 NUM of IPS identified critical: 0
CPU 0 Num of Load IPs stalling ROB: 11893
Threshold modification factor: -1
Max PIST entries: 64
Min PIST entries: 0
Avg PIST entries: 32
Trouble in retire width: 0.909758
MaC = Marked as critical.
lt_50_percent_before_Mac: 0
gt_90_percent_before_Mac: 0
gt_75_percent_before_Mac: 0
gt_50_percent_before_Mac: 0
stall_proportion_bin_same_before_after: 0
stall_proportion_bin_lower_before_after: 0
stall_proportion_bin_upper_before_after: 0
average_stall_proportion_before: -nan
average_stall_proportion_after: -nan
Critical IP stalls, total frequency: 0
Non-critical IP stalls, total frequency: 3526736
Total Freq all stalling IPs: 3526736
stat_90_percent_critical_ip_stalls_freq: 3174049
stat_90_percent_non_critical_ip_stalls_freq: 352687
Critical_IP_ROB_Stalls_Bucket_0: 0
Non-critical_IP_ROB_Stalls_Bucket_0: 2510378
Critical_IP_ROB_Stalls_Bucket_1: 0
Non-critical_IP_ROB_Stalls_Bucket_1: 685248
Critical_IP_ROB_Stalls_Bucket_2: 0
Non-critical_IP_ROB_Stalls_Bucket_2: 225765
Critical_IP_ROB_Stalls_Bucket_3: 0
Non-critical_IP_ROB_Stalls_Bucket_3: 54857
Critical_IP_ROB_Stalls_Bucket_4: 0
Non-critical_IP_ROB_Stalls_Bucket_4: 20049
Critical_IP_ROB_Stalls_Bucket_5: 0
Non-critical_IP_ROB_Stalls_Bucket_5: 11079
Critical_IP_ROB_Stalls_Bucket_6: 0
Non-critical_IP_ROB_Stalls_Bucket_6: 19360
0 => IPs accounting for >50 percent of stalls, 1 => 55, 2 => 60, 3 => 65 and so on till 90.
percent50: 50.0048 num IPs:  551
percent55: 55.0023 num IPs: 771
percent60: 60.0151 num IPs: 1015
percent65: 65.0147 num IPs: 1262
percent70: 70.0033 num IPs: 1542
percent75: 75.003 num IPs: 1900
percent80: 80.0082 num IPs: 2281
percent85: 85.0072 num IPs: 2794
percent90: 90.0008 num IPs: 3498
Critical_ROB_Stalls_Percent_0_Bucket_0: 1025561
Non-critical_ROB_Stalls_Percent_0_Bucket_0: 1484817
Critical_ROB_Stalls_Percent_0_Bucket_1: 465732
Non-critical_ROB_Stalls_Percent_0_Bucket_1: 219516
Critical_ROB_Stalls_Percent_0_Bucket_2: 177894
Non-critical_ROB_Stalls_Percent_0_Bucket_2: 47871
Critical_ROB_Stalls_Percent_0_Bucket_3: 49283
Non-critical_ROB_Stalls_Percent_0_Bucket_3: 5574
Critical_ROB_Stalls_Percent_0_Bucket_4: 17751
Non-critical_ROB_Stalls_Percent_0_Bucket_4: 2298
Critical_ROB_Stalls_Percent_0_Bucket_5: 9912
Non-critical_ROB_Stalls_Percent_0_Bucket_5: 1167
Critical_ROB_Stalls_Percent_0_Bucket_6: 17403
Non-critical_ROB_Stalls_Percent_0_Bucket_6: 1957
Critical_ROB_Stalls_Percent_1_Bucket_0: 1157178
Non-critical_ROB_Stalls_Percent_1_Bucket_0: 1353200
Critical_ROB_Stalls_Percent_1_Bucket_1: 497660
Non-critical_ROB_Stalls_Percent_1_Bucket_1: 187588
Critical_ROB_Stalls_Percent_1_Bucket_2: 188098
Non-critical_ROB_Stalls_Percent_1_Bucket_2: 37667
Critical_ROB_Stalls_Percent_1_Bucket_3: 50416
Non-critical_ROB_Stalls_Percent_1_Bucket_3: 4441
Critical_ROB_Stalls_Percent_1_Bucket_4: 18297
Non-critical_ROB_Stalls_Percent_1_Bucket_4: 1752
Critical_ROB_Stalls_Percent_1_Bucket_5: 10062
Non-critical_ROB_Stalls_Percent_1_Bucket_5: 1017
Critical_ROB_Stalls_Percent_1_Bucket_6: 18076
Non-critical_ROB_Stalls_Percent_1_Bucket_6: 1284
Critical_ROB_Stalls_Percent_2_Bucket_0: 1282753
Non-critical_ROB_Stalls_Percent_2_Bucket_0: 1227625
Critical_ROB_Stalls_Percent_2_Bucket_1: 540283
Non-critical_ROB_Stalls_Percent_2_Bucket_1: 144965
Critical_ROB_Stalls_Percent_2_Bucket_2: 195960
Non-critical_ROB_Stalls_Percent_2_Bucket_2: 29805
Critical_ROB_Stalls_Percent_2_Bucket_3: 51008
Non-critical_ROB_Stalls_Percent_2_Bucket_3: 3849
Critical_ROB_Stalls_Percent_2_Bucket_4: 18422
Non-critical_ROB_Stalls_Percent_2_Bucket_4: 1627
Critical_ROB_Stalls_Percent_2_Bucket_5: 10062
Non-critical_ROB_Stalls_Percent_2_Bucket_5: 1017
Critical_ROB_Stalls_Percent_2_Bucket_6: 18076
Non-critical_ROB_Stalls_Percent_2_Bucket_6: 1284
Critical_ROB_Stalls_Percent_3_Bucket_0: 1432321
Non-critical_ROB_Stalls_Percent_3_Bucket_0: 1078057
Critical_ROB_Stalls_Percent_3_Bucket_1: 562855
Non-critical_ROB_Stalls_Percent_3_Bucket_1: 122393
Critical_ROB_Stalls_Percent_3_Bucket_2: 199814
Non-critical_ROB_Stalls_Percent_3_Bucket_2: 25951
Critical_ROB_Stalls_Percent_3_Bucket_3: 51233
Non-critical_ROB_Stalls_Percent_3_Bucket_3: 3624
Critical_ROB_Stalls_Percent_3_Bucket_4: 18527
Non-critical_ROB_Stalls_Percent_3_Bucket_4: 1522
Critical_ROB_Stalls_Percent_3_Bucket_5: 10062
Non-critical_ROB_Stalls_Percent_3_Bucket_5: 1017
Critical_ROB_Stalls_Percent_3_Bucket_6: 18076
Non-critical_ROB_Stalls_Percent_3_Bucket_6: 1284
Critical_ROB_Stalls_Percent_4_Bucket_0: 1576743
Non-critical_ROB_Stalls_Percent_4_Bucket_0: 933635
Critical_ROB_Stalls_Percent_4_Bucket_1: 588977
Non-critical_ROB_Stalls_Percent_4_Bucket_1: 96271
Critical_ROB_Stalls_Percent_4_Bucket_2: 204541
Non-critical_ROB_Stalls_Percent_4_Bucket_2: 21224
Critical_ROB_Stalls_Percent_4_Bucket_3: 51700
Non-critical_ROB_Stalls_Percent_4_Bucket_3: 3157
Critical_ROB_Stalls_Percent_4_Bucket_4: 18695
Non-critical_ROB_Stalls_Percent_4_Bucket_4: 1354
Critical_ROB_Stalls_Percent_4_Bucket_5: 10090
Non-critical_ROB_Stalls_Percent_4_Bucket_5: 989
Critical_ROB_Stalls_Percent_4_Bucket_6: 18076
Non-critical_ROB_Stalls_Percent_4_Bucket_6: 1284
Critical_ROB_Stalls_Percent_5_Bucket_0: 1721775
Non-critical_ROB_Stalls_Percent_5_Bucket_0: 788603
Critical_ROB_Stalls_Percent_5_Bucket_1: 611706
Non-critical_ROB_Stalls_Percent_5_Bucket_1: 73542
Critical_ROB_Stalls_Percent_5_Bucket_2: 212366
Non-critical_ROB_Stalls_Percent_5_Bucket_2: 13399
Critical_ROB_Stalls_Percent_5_Bucket_3: 52190
Non-critical_ROB_Stalls_Percent_5_Bucket_3: 2667
Critical_ROB_Stalls_Percent_5_Bucket_4: 18845
Non-critical_ROB_Stalls_Percent_5_Bucket_4: 1204
Critical_ROB_Stalls_Percent_5_Bucket_5: 10151
Non-critical_ROB_Stalls_Percent_5_Bucket_5: 928
Critical_ROB_Stalls_Percent_5_Bucket_6: 18116
Non-critical_ROB_Stalls_Percent_5_Bucket_6: 1244
Critical_ROB_Stalls_Percent_6_Bucket_0: 1877309
Non-critical_ROB_Stalls_Percent_6_Bucket_0: 633069
Critical_ROB_Stalls_Percent_6_Bucket_1: 629013
Non-critical_ROB_Stalls_Percent_6_Bucket_1: 56235
Critical_ROB_Stalls_Percent_6_Bucket_2: 215589
Non-critical_ROB_Stalls_Percent_6_Bucket_2: 10176
Critical_ROB_Stalls_Percent_6_Bucket_3: 52551
Non-critical_ROB_Stalls_Percent_6_Bucket_3: 2306
Critical_ROB_Stalls_Percent_6_Bucket_4: 18891
Non-critical_ROB_Stalls_Percent_6_Bucket_4: 1158
Critical_ROB_Stalls_Percent_6_Bucket_5: 10154
Non-critical_ROB_Stalls_Percent_6_Bucket_5: 925
Critical_ROB_Stalls_Percent_6_Bucket_6: 18167
Non-critical_ROB_Stalls_Percent_6_Bucket_6: 1193
Critical_ROB_Stalls_Percent_7_Bucket_0: 2033864
Non-critical_ROB_Stalls_Percent_7_Bucket_0: 476514
Critical_ROB_Stalls_Percent_7_Bucket_1: 645344
Non-critical_ROB_Stalls_Percent_7_Bucket_1: 39904
Critical_ROB_Stalls_Percent_7_Bucket_2: 217995
Non-critical_ROB_Stalls_Percent_7_Bucket_2: 7770
Critical_ROB_Stalls_Percent_7_Bucket_3: 53009
Non-critical_ROB_Stalls_Percent_7_Bucket_3: 1848
Critical_ROB_Stalls_Percent_7_Bucket_4: 19063
Non-critical_ROB_Stalls_Percent_7_Bucket_4: 986
Critical_ROB_Stalls_Percent_7_Bucket_5: 10416
Non-critical_ROB_Stalls_Percent_7_Bucket_5: 663
Critical_ROB_Stalls_Percent_7_Bucket_6: 18285
Non-critical_ROB_Stalls_Percent_7_Bucket_6: 1075
Critical_ROB_Stalls_Percent_8_Bucket_0: 2198974
Non-critical_ROB_Stalls_Percent_8_Bucket_0: 311404
Critical_ROB_Stalls_Percent_8_Bucket_1: 654767
Non-critical_ROB_Stalls_Percent_8_Bucket_1: 30481
Critical_ROB_Stalls_Percent_8_Bucket_2: 219279
Non-critical_ROB_Stalls_Percent_8_Bucket_2: 6486
Critical_ROB_Stalls_Percent_8_Bucket_3: 53193
Non-critical_ROB_Stalls_Percent_8_Bucket_3: 1664
Critical_ROB_Stalls_Percent_8_Bucket_4: 19099
Non-critical_ROB_Stalls_Percent_8_Bucket_4: 950
Critical_ROB_Stalls_Percent_8_Bucket_5: 10441
Non-critical_ROB_Stalls_Percent_8_Bucket_5: 638
Critical_ROB_Stalls_Percent_8_Bucket_6: 18296
Non-critical_ROB_Stalls_Percent_8_Bucket_6: 1064
Average ROB occupancy Load Stall Begin: 36.6498
Average ROB occupancy Load Stall End: 44.6062
Min ROB occupancy Load Stall Begin: 1
Max ROB occupancy Load Stall Begin: 352
Min ROB occupancy Load Stall End: 1
Max ROB occupancy Load Stall End: 352
Average ROB occupancy Critical Load Stall Begin: -nan
Average ROB occupancy Critical Load Stall End: -nan
Min ROB occupancy Critical Load Stall Begin: 400
Max ROB occupancy Critical Load Stall Begin: 0
Min ROB occupancy Critical Load Stall End: 400
Max ROB occupancy Critical Load Stall End: 0
 ROB Load Stall Begin Bucket Count 0: 2742202
 ROB Load Stall End Bucket Count 0: 2510378
 ROB Critical Load Stall Begin Bucket Count 0: 0
 ROB Critical Load Stall End Bucket Count 0: 0
 ROB Load Stall Begin Bucket Count 1: 528599
 ROB Load Stall End Bucket Count 1: 685248
 ROB Critical Load Stall Begin Bucket Count 1: 0
 ROB Critical Load Stall End Bucket Count 1: 0
 ROB Load Stall Begin Bucket Count 2: 169350
 ROB Load Stall End Bucket Count 2: 225765
 ROB Critical Load Stall Begin Bucket Count 2: 0
 ROB Critical Load Stall End Bucket Count 2: 0
 ROB Load Stall Begin Bucket Count 3: 41506
 ROB Load Stall End Bucket Count 3: 54857
 ROB Critical Load Stall Begin Bucket Count 3: 0
 ROB Critical Load Stall End Bucket Count 3: 0
 ROB Load Stall Begin Bucket Count 4: 17098
 ROB Load Stall End Bucket Count 4: 20049
 ROB Critical Load Stall Begin Bucket Count 4: 0
 ROB Critical Load Stall End Bucket Count 4: 0
 ROB Load Stall Begin Bucket Count 5: 10108
 ROB Load Stall End Bucket Count 5: 11079
 ROB Critical Load Stall Begin Bucket Count 5: 0
 ROB Critical Load Stall End Bucket Count 5: 0
 ROB Load Stall Begin Bucket Count 6: 17873
 ROB Load Stall End Bucket Count 6: 19360
 ROB Critical Load Stall Begin Bucket Count 6: 0
 ROB Critical Load Stall End Bucket Count 6: 0
PIST Tag Read Accesses: 2330248
PIST Read Accesses: 1165124
PIST Tag Write Accesses: 2330248
PIST Write Accesses: 1165124
Criticality detector called times: 3414308
Max global_stall_cycles_count: 1956719
Threshold Modified: 1 times, factor: -1
Sturdy critical IP cache stats: 
 Unused entries: 0
CIC Tag Read Accesses: 0
CIC Read Accesses: 0
CIC Tag Write Accesses: 0
CIC Write Accesses: 0
Wobbly critical IP cache stats: 
 Unused entries: 125
CIC Tag Read Accesses: 85702608
CIC Read Accesses: 0
CIC Tag Write Accesses: 3
CIC Write Accesses: 0
ITLB TOTAL     ACCESS:   10102740  HIT:    9438360  MISS:     664380  HIT %:    93.4238  MISS %:    6.57624   MPKI: 13.2876
ITLB LOAD TRANSLATION ACCESS:    8116184  HIT:    8023403  MISS:      92781  HIT %:    98.8568  MISS %:    1.14316   MPKI: 1.85562
ITLB TRANSLATION FROM L1D PREFETCHER ACCESS:    1986556  HIT:    1414957  MISS:     571599  HIT %:    71.2266  MISS %:    28.7734   MPKI: 11.432
ITLB PREFETCH  REQUESTED:          0  ISSUED:          0  USEFUL:     456256  USELESS:     115345
ITLB USEFUL LOAD PREFETCHES:     456256 PREFETCH ISSUED TO LOWER LEVEL:          0  ACCURACY: inf
ITLB TIMELY PREFETCHES:     456256 LATE PREFETCHES: 256 DROPPED PREFETCHES: 3873
ITLB PREFETCHES SAME FILL-ORIGIN LEVEL: 0 DIFFERENT FILL-ORIGIN LEVEL: 0
ITLB AVERAGE MISS LATENCY: 17641.4 cycles
ITLB RQ	ACCESS:   15142457	FORWARD:          0	MERGED:    4993185	TO_CACHE:   10149272

DTLB TOTAL     ACCESS:   11554308  HIT:   11077000  MISS:     477308  HIT %:     95.869  MISS %:      4.131   MPKI: 9.54616
DTLB LOAD TRANSLATION ACCESS:   11554308  HIT:   11077000  MISS:     477308  HIT %:     95.869  MISS %:      4.131   MPKI: 9.54616
DTLB PREFETCH  REQUESTED:          0  ISSUED:          0  USEFUL:          0  USELESS:          0
DTLB USEFUL LOAD PREFETCHES:          0 PREFETCH ISSUED TO LOWER LEVEL:          0  ACCURACY: -nan
DTLB TIMELY PREFETCHES:          0 LATE PREFETCHES: 0 DROPPED PREFETCHES: 0
DTLB PREFETCHES SAME FILL-ORIGIN LEVEL: 0 DIFFERENT FILL-ORIGIN LEVEL: 0
DTLB AVERAGE MISS LATENCY: 9.24771 cycles
DTLB RQ	ACCESS:   15018564	FORWARD:          0	MERGED:    3437581	TO_CACHE:   11580983

STLB TOTAL     ACCESS:    1163981  HIT:    1161875  MISS:       2106  HIT %:    99.8191  MISS %:   0.180931   MPKI: 0.04212
STLB LOAD TRANSLATION ACCESS:     569833  HIT:     567828  MISS:       2005  HIT %:    99.6481  MISS %:   0.351857   MPKI: 0.0401
STLB TRANSLATION FROM L1D PREFETCHER ACCESS:     594148  HIT:     594047  MISS:        101  HIT %:     99.983  MISS %:  0.0169991   MPKI: 0.00202
STLB PREFETCH  REQUESTED:          0  ISSUED:          0  USEFUL:         88  USELESS:         14
STLB USEFUL LOAD PREFETCHES:         88 PREFETCH ISSUED TO LOWER LEVEL:          0  ACCURACY: inf
STLB TIMELY PREFETCHES:         88 LATE PREFETCHES: 0 DROPPED PREFETCHES: 3873
STLB PREFETCHES SAME FILL-ORIGIN LEVEL: 0 DIFFERENT FILL-ORIGIN LEVEL: 0
STLB AVERAGE MISS LATENCY: 58.8647 cycles
STLB RQ	ACCESS:    1173884	FORWARD:          0	MERGED:       6030	TO_CACHE:    1167854

STLB Hit, L1D data hit: 0
STLB Hit, L2C data hit: 0
STLB Hit, LLC data hit: 0
STLB Hit, LLC data miss: 0
STLB STLB hints to L2: 0
L1D TOTAL     ACCESS:   14534019  HIT:   13464860  MISS:    1069159  HIT %:    92.6437  MISS %:    7.35625   MPKI: 21.3832
L1D LOAD      ACCESS:    8158824  HIT:    7390020  MISS:     768804  HIT %:     90.577  MISS %:    9.42298   MPKI: 15.3761
L1D RFO       ACCESS:    6351854  HIT:    6060268  MISS:     291586  HIT %:    95.4094  MISS %:    4.59057   MPKI: 5.83172
L1D PREFETCH  ACCESS:      23341  HIT:      14572  MISS:       8769  HIT %:    62.4309  MISS %:    37.5691   MPKI: 0.17538
L1D PREFETCH  REQUESTED:      56647  ISSUED:      56647  USEFUL:       4794  USELESS:       4005
L1D USEFUL LOAD PREFETCHES:       4794 PREFETCH ISSUED TO LOWER LEVEL:      12101  ACCURACY: 39.6166
L1D TIMELY PREFETCHES:       4794 LATE PREFETCHES: 3325 DROPPED PREFETCHES: 0
L1D PREFETCHES SAME FILL-ORIGIN LEVEL: 12101 DIFFERENT FILL-ORIGIN LEVEL: 0
L1D AVERAGE MISS LATENCY: 107848 cycles
L1D RQ	ACCESS:   11660158	FORWARD:          0	MERGED:    3333035	TO_CACHE:    8187259
L1D WQ	ACCESS:    6901339	FORWARD:     139865	MERGED:      70034	TO_CACHE:    6831305
L1D PQ	ACCESS:      28324	FORWARD:          0	MERGED:          0	TO_CACHE:      28323

L1D UNIQUE REGIONS ACCESSED: 0
L1D REGIONS CONFLICTS: 0
L1D Cross Page Prefetch Requests: 0
L1D Same Page Prefetch Requests: 440818
L1D ROI Sum of L1D PQ occupancy: 400342
L1D PREFETCHES PUSHED FROM L2C: 0
L1I TOTAL     ACCESS:   14990416  HIT:   10884864  MISS:    4105552  HIT %:    72.6122  MISS %:    27.3878   MPKI: 82.111
L1I LOAD      ACCESS:    9552620  HIT:    9276320  MISS:     276300  HIT %:    97.1076  MISS %:     2.8924   MPKI: 5.526
L1I PREFETCH  ACCESS:    5437796  HIT:    1608544  MISS:    3829252  HIT %:    29.5808  MISS %:    70.4192   MPKI: 76.585
L1I PREFETCH  REQUESTED:    5690862  ISSUED:    5682277  USEFUL:    2597629  USELESS:    1231635
L1I USEFUL LOAD PREFETCHES:    2597629 PREFETCH ISSUED TO LOWER LEVEL:    3860243  ACCURACY: 67.2919
L1I TIMELY PREFETCHES:    2597629 LATE PREFETCHES: 30991 DROPPED PREFETCHES: 9259
L1I PREFETCHES SAME FILL-ORIGIN LEVEL: 3860243 DIFFERENT FILL-ORIGIN LEVEL: 0
L1I AVERAGE MISS LATENCY: 405571 cycles
L1I RQ	ACCESS:   13499272	FORWARD:          0	MERGED:    3922271	TO_CACHE:    9577001
L1I PQ	ACCESS:    5682277	FORWARD:          0	MERGED:     116821	TO_CACHE:    5565456

BTB TOTAL     ACCESS:    5981441  HIT:    3992143  MISS:    1989298  HIT %:    66.7422  MISS %:    33.2578   MPKI: 39.786
BTB BRANCH_DIRECT_JUMP	ACCESS:     522043  HIT:     347789  MISS:     174254
BTB BRANCH_INDIRECT	ACCESS:     204034  HIT:     166604  MISS:      37430
BTB BRANCH_CONDITIONAL	ACCESS:    3043077  HIT:    2486506  MISS:     556571
BTB BRANCH_DIRECT_CALL	ACCESS:     932385  HIT:     529353  MISS:     403032
BTB BRANCH_INDIRECT_CALL	ACCESS:     173762  HIT:      95752  MISS:      78010
BTB BRANCH_RETURN	ACCESS:    1106140  HIT:     366139  MISS:     740001
BTB BRANCH_OTHER ACCESS:          0  HIT:          0  MISS:          0

L2C TOTAL     ACCESS:    5728003  HIT:    5166237  MISS:     561766  HIT %:    90.1926  MISS %:    9.80736   MPKI: 11.2353
L2C LOAD      ACCESS:    1010762  HIT:     848297  MISS:     162465  HIT %:    83.9265  MISS %:    16.0735   MPKI: 3.2493
L2C DATA LOAD MPKI: 2.5359
L2C INSTRUCTION LOAD MPKI: 0.7134
L2C RFO       ACCESS:     291579  HIT:     224599  MISS:      66980  HIT %:    77.0285  MISS %:    22.9715   MPKI: 1.3396
L2C PREFETCH  ACCESS:    3904523  HIT:    3598759  MISS:     305764  HIT %:     92.169  MISS %:    7.83102   MPKI: 6.11528
L2C DATA PREFETCH MPKI: 0.30052
L2C INSTRUCTION PREFETCH MPKI: 5.81476
L2C WRITEBACK ACCESS:     512380  HIT:     487394  MISS:      24986  HIT %:    95.1235  MISS %:    4.87646   MPKI: 0.49972
L2C LOAD TRANSLATION ACCESS:       2118  HIT:        706  MISS:       1412  HIT %:    33.3333  MISS %:    66.6667   MPKI: 0.02824
L2C TRANSLATION FROM L1D PREFETCHER ACCESS:       6641  HIT:       6482  MISS:        159  HIT %:    97.6058  MISS %:    2.39422   MPKI: 0.00318
L2C PREFETCH  REQUESTED:      46960  ISSUED:      46960  USEFUL:       6565  USELESS:     300533
L2C USEFUL LOAD PREFETCHES:       6565 PREFETCH ISSUED TO LOWER LEVEL:     305872  ACCURACY: 2.14632
L2C TIMELY PREFETCHES:       6565 LATE PREFETCHES: 108 DROPPED PREFETCHES: 0
L2C PREFETCHES SAME FILL-ORIGIN LEVEL: 7209 DIFFERENT FILL-ORIGIN LEVEL: 0
L2C AVERAGE MISS LATENCY: 35.3808 cycles
L2C RQ	ACCESS:    1311126	FORWARD:          0	MERGED:          0	TO_CACHE:    1311100
L2C WQ	ACCESS:     512380	FORWARD:         26	MERGED:          0	TO_CACHE:     512380
L2C PQ	ACCESS:    3919304	FORWARD:          0	MERGED:      14349	TO_CACHE:    3904955

L2C Instructions Evicting Data 124027
L2C Translations Evicting Data 984
L2C Data Evicting Data 99502
L2C Instructions Evicting Instructions 201894
L2C Translations Evicting Instructions 533
L2C Data Evicting Instructions 108303
L2C Instructions Evicting Translations 487
L2C Translations Evicting Translations 54
L2C Data Evicting Translations 996
L2C Dense regions hint from L2: 0
PSCL5 TOTAL     ACCESS:       5979  HIT:       5979  MISS:          0  HIT %:        100  MISS %:          0   MPKI: 0
PSCL5 LOAD TRANSLATION ACCESS:       2005  HIT:       2005  MISS:          0  HIT %:        100  MISS %:          0   MPKI: 0
PSCL5 TRANSLATION FROM L1D PREFETCHER ACCESS:       3974  HIT:       3974  MISS:          0  HIT %:        100  MISS %:          0   MPKI: 0
PSCL5 PREFETCH  REQUESTED:          0  ISSUED:          0  USEFUL:          0  USELESS:          0
PSCL5 USEFUL LOAD PREFETCHES:          0 PREFETCH ISSUED TO LOWER LEVEL:          0  ACCURACY: -nan
PSCL5 TIMELY PREFETCHES:          0 LATE PREFETCHES: 0 DROPPED PREFETCHES: 0
PSCL5 PREFETCHES SAME FILL-ORIGIN LEVEL: 0 DIFFERENT FILL-ORIGIN LEVEL: 0

PSCL4 TOTAL     ACCESS:       5894  HIT:       5886  MISS:          8  HIT %:    99.8643  MISS %:   0.135731   MPKI: 0.00016
PSCL4 LOAD TRANSLATION ACCESS:       1925  HIT:       1917  MISS:          8  HIT %:    99.5844  MISS %:   0.415584   MPKI: 0.00016
PSCL4 TRANSLATION FROM L1D PREFETCHER ACCESS:       3969  HIT:       3969  MISS:          0  HIT %:        100  MISS %:          0   MPKI: 0
PSCL4 PREFETCH  REQUESTED:          0  ISSUED:          0  USEFUL:          0  USELESS:          0
PSCL4 USEFUL LOAD PREFETCHES:          0 PREFETCH ISSUED TO LOWER LEVEL:          0  ACCURACY: -nan
PSCL4 TIMELY PREFETCHES:          0 LATE PREFETCHES: 0 DROPPED PREFETCHES: 0
PSCL4 PREFETCHES SAME FILL-ORIGIN LEVEL: 0 DIFFERENT FILL-ORIGIN LEVEL: 0

PSCL3 TOTAL     ACCESS:       5922  HIT:       5914  MISS:          8  HIT %:    99.8649  MISS %:   0.135089   MPKI: 0.00016
PSCL3 LOAD TRANSLATION ACCESS:       1953  HIT:       1945  MISS:          8  HIT %:    99.5904  MISS %:   0.409626   MPKI: 0.00016
PSCL3 TRANSLATION FROM L1D PREFETCHER ACCESS:       3969  HIT:       3969  MISS:          0  HIT %:        100  MISS %:          0   MPKI: 0
PSCL3 PREFETCH  REQUESTED:          0  ISSUED:          0  USEFUL:          0  USELESS:          0
PSCL3 USEFUL LOAD PREFETCHES:          0 PREFETCH ISSUED TO LOWER LEVEL:          0  ACCURACY: -nan
PSCL3 TIMELY PREFETCHES:          0 LATE PREFETCHES: 0 DROPPED PREFETCHES: 0
PSCL3 PREFETCHES SAME FILL-ORIGIN LEVEL: 0 DIFFERENT FILL-ORIGIN LEVEL: 0

PSCL2 TOTAL     ACCESS:       3340  HIT:       3224  MISS:        116  HIT %:    96.5269  MISS %:    3.47305   MPKI: 0.00232
PSCL2 LOAD TRANSLATION ACCESS:       2023  HIT:       1907  MISS:        116  HIT %:    94.2659  MISS %:    5.73406   MPKI: 0.00232
PSCL2 TRANSLATION FROM L1D PREFETCHER ACCESS:       1317  HIT:       1317  MISS:          0  HIT %:        100  MISS %:          0   MPKI: 0
PSCL2 PREFETCH  REQUESTED:          0  ISSUED:          0  USEFUL:          0  USELESS:          0
PSCL2 USEFUL LOAD PREFETCHES:          0 PREFETCH ISSUED TO LOWER LEVEL:          0  ACCURACY: -nan
PSCL2 TIMELY PREFETCHES:          0 LATE PREFETCHES: 0 DROPPED PREFETCHES: 0
PSCL2 PREFETCHES SAME FILL-ORIGIN LEVEL: 0 DIFFERENT FILL-ORIGIN LEVEL: 0

LLC TOTAL     ACCESS:     632866  HIT:     610401  MISS:      22465  HIT %:    96.4503  MISS %:    3.54972   MPKI: 0.4493
LLC LOAD      ACCESS:     162371  HIT:     154848  MISS:       7523  HIT %:    95.3668  MISS %:    4.63322   MPKI: 0.15046
LLC RFO       ACCESS:      66963  HIT:      55261  MISS:      11702  HIT %:    82.5247  MISS %:    17.4753   MPKI: 0.23404
LLC PREFETCH  ACCESS:     305872  HIT:     303000  MISS:       2872  HIT %:     99.061  MISS %:   0.938955   MPKI: 0.05744
LLC WRITEBACK ACCESS:      96089  HIT:      95849  MISS:        240  HIT %:    99.7502  MISS %:   0.249768   MPKI: 0.0048
LLC LOAD TRANSLATION ACCESS:       1412  HIT:       1295  MISS:        117  HIT %:    91.7139  MISS %:    8.28612   MPKI: 0.00234
LLC TRANSLATION FROM L1D PREFETCHER ACCESS:        159  HIT:        148  MISS:         11  HIT %:    93.0818  MISS %:    6.91824   MPKI: 0.00022
LLC PREFETCH  REQUESTED:          0  ISSUED:          0  USEFUL:       2257  USELESS:       7118
LLC USEFUL LOAD PREFETCHES:       2257 PREFETCH ISSUED TO LOWER LEVEL:       2872  ACCURACY: 78.5864
LLC TIMELY PREFETCHES:       2257 LATE PREFETCHES: 0 DROPPED PREFETCHES: 0
LLC PREFETCHES SAME FILL-ORIGIN LEVEL: 0 DIFFERENT FILL-ORIGIN LEVEL: 0
LLC AVERAGE MISS LATENCY: 167.639 cycles
LLC RQ	ACCESS:     230908	FORWARD:          0	MERGED:          0	TO_CACHE:     230905
LLC WQ	ACCESS:      96089	FORWARD:          3	MERGED:          0	TO_CACHE:      96089
LLC PQ	ACCESS:     305872	FORWARD:          0	MERGED:          0	TO_CACHE:     305872

LLC Dense regions hint to LLC: 0

RAW hits: 955662
Loads Generated: 12615820
Loads sent to L1D: 11660158
Stores Generated: 6901350
Stores sent to L1D: 6901339
Major fault: 0 Minor fault: 2264
Allocated PAGES: 2264
I-Shadow cache 408 bytes
Touched + WorthPF tables 6144 bytes 
MMA filter 174 bytes 
FNL filter 272 bytes 
TOTAL PREFETCHER STORAGE SIZE: 25174 bytes
CPU 0 L1I next line prefetcher final stats

stream: 
stream:times selected: 1299770
stream:pref_filled: 64571
stream:pref_useful: 17420
stream:pref_late: 6491
stream:misses: 8668
stream:misses_by_poll: 0

CS: 
CS:times selected: 216426
CS:pref_filled: 50371
CS:pref_useful: 37153
CS:pref_late: 4082
CS:misses: 47622
CS:misses_by_poll: 0

CPLX: 
CPLX:times selected: 1082307
CPLX:pref_filled: 16342
CPLX:pref_useful: 5493
CPLX:pref_late: 2069
CPLX:misses: 120814
CPLX:misses_by_poll: 0

NL_L1: 
NL:times selected: 8008
NL:pref_filled: 97
NL:pref_useful: 50
NL:pref_late: 18
NL:misses: 286
NL:misses_by_poll: 0

total selections: 2606511
total_filled: 8769
total_useful: 4794
total_late: 13641
total_polluted: 0
total_misses_after_warmup: 797239
conflicts: 3327783
Degree Incremented Times: 0
Degree Decremented Times: 103747

L1 IP Table Write Accesses: 4648774
L1 IP Table Read Accesses: 1320991
L1 RST Write Accesses: 650690
L1 RST Read Accesses: 1301380
L1 CSPT Write Accesses: 650690
L1 CSPT Read Accesses: 1186532
L1 RR Filter Tag Write Accesses: 28324
L1 RR Filter Tag Read Accesses: 3419948
L1 IP Table Tag Write Accesses: 8187259
L1 IP Table Tag Read Accesses: 8187259
L1 RST Tag Write Accesses: 0
L1 RST Tag Read Accesses: 6212951
L1 RR Filter Write Accesses: 0
L1 RR Filter Read Accesses: 124221
test: 127808
L2 IP Table Read Accesses: 4805317
L2 IP Table Write Accesses: 9072466
L2 IP Table Tag Read Accesses: 4633605
L2 IP Table Tag Write Accesses: 4633605

DRAM Statistics
 CHANNEL 0
 RQ ROW_BUFFER_HIT:       8177  ROW_BUFFER_MISS:      14035
 DBUS_CONGESTED:          4
 WQ ROW_BUFFER_HIT:       1266  ROW_BUFFER_MISS:       9270  FULL:          0

 AVG_CONGESTED_CYCLE: 4
 All warmup complete: 2
Channel 0 Bank busy for read cycles: 0
Channel 0 Bank busy for write cycles: 0
Channel 0
Rank 0
0banks busy for read cycles: 79521600
0banks busy for write cycles: 2661
1banks busy for read cycles: 991955
1banks busy for write cycles: 374337
2banks busy for read cycles: 138290
2banks busy for write cycles: 117407
3banks busy for read cycles: 62800
3banks busy for write cycles: 74302
4banks busy for read cycles: 35437
4banks busy for write cycles: 52665
5banks busy for read cycles: 31698
5banks busy for write cycles: 44411
6banks busy for read cycles: 30401
6banks busy for write cycles: 40712
7banks busy for read cycles: 27116
7banks busy for write cycles: 33578
8banks busy for read cycles: 51649
8banks busy for write cycles: 83146

CPU 0 Branch Prediction Accuracy: 99.822% MPKI: 0.32584 Average ROB Occupancy at Mispredict: 74.467
Branch types
NOT_BRANCH: 40848387 81.6968%
BRANCH_DIRECT_JUMP: 522043 1.04409%
BRANCH_INDIRECT: 204034 0.408068%
BRANCH_CONDITIONAL: 6212933 12.4259%
BRANCH_DIRECT_CALL: 932385 1.86477%
BRANCH_INDIRECT_CALL: 173762 0.347524%
BRANCH_RETURN: 1106140 2.21228%
BRANCH_OTHER: 0 0%

DRAM PAGES: 1048576
Allocated PAGES: 2264
