
*** ChampSim Multicore Out-of-Order Simulator ***

Warmup Instructions: 50000000
Simulation Instructions: 50000000
Number of CPUs: 1
LLC sets: 2048
LLC ways: 16
Off-chip DRAM Size: 4096 MB Channels: 1 Width: 64-bit Data Rate: 6400 MT/s
CPU 0 runs ../IPC-traces//server_004.champsimtrace.xz
.xz
NUM_OF_IPS_IN_CRITICAL_IP_TRAINING: 64
NUM_OF_CRITICAL_IP_TRAINING_TABLE_WAYS: 2
NUM_OF_CRITICAL_IP_TRAINING_TABLE_SETS: 32
WOBBLY_CRITICAL_IP_CACHE_SETS: 32
WOBBLY_CRITICAL_IP_CACHE_WAYS: 4
BTB has LRU replacement policy
ITLB has LRU replacement policy
DTLB has LRU replacement policy
STLB has LRU replacement policy
CPU 0 L1I next line prefetcher
L1I has LRU replacement policy
IP Table Entries: 256
L1D has LRU replacement policy
Initialize SRRIP state for L2C
Initialize DRRIP state for LLC
Heartbeat CPU 0 instructions: 10000002 cycles: 2773123 heartbeat IPC: 3.60604 cumulative IPC: 3.60604 (Simulation time: 0 hr 1 min 51 sec) 
Heartbeat CPU 0 instructions: 20000002 cycles: 5586569 heartbeat IPC: 3.55436 cumulative IPC: 3.58002 (Simulation time: 0 hr 3 min 40 sec) 
Heartbeat CPU 0 instructions: 30000000 cycles: 9727232 heartbeat IPC: 2.41507 cumulative IPC: 3.08413 (Simulation time: 0 hr 5 min 55 sec) 
Heartbeat CPU 0 instructions: 40000003 cycles: 12866336 heartbeat IPC: 3.18562 cumulative IPC: 3.10889 (Simulation time: 0 hr 7 min 55 sec) 
Heartbeat CPU 0 instructions: 50000003 cycles: 15632117 heartbeat IPC: 3.61562 cumulative IPC: 3.19854 (Simulation time: 0 hr 9 min 43 sec) 

Warmup complete CPU 0 instructions: 50000003 cycles: 15632117 (Simulation time: 0 hr 9 min 43 sec) 

Heartbeat CPU 0 instructions: 60000002 cycles: 31120900 heartbeat IPC: 0.645628 cumulative IPC: 0.645628 (Simulation time: 0 hr 12 min 7 sec) 
Heartbeat CPU 0 instructions: 70000000 cycles: 46086828 heartbeat IPC: 0.668184 cumulative IPC: 0.656713 (Simulation time: 0 hr 14 min 23 sec) 
Heartbeat CPU 0 instructions: 80000001 cycles: 72779598 heartbeat IPC: 0.374633 cumulative IPC: 0.524957 (Simulation time: 0 hr 17 min 47 sec) 
Heartbeat CPU 0 instructions: 90000000 cycles: 95826929 heartbeat IPC: 0.43389 cumulative IPC: 0.498785 (Simulation time: 0 hr 20 min 25 sec) 
Heartbeat CPU 0 instructions: 100000002 cycles: 111585138 heartbeat IPC: 0.63459 cumulative IPC: 0.521088 (Simulation time: 0 hr 23 min 58 sec) 
Finished CPU 0 instructions: 50000000 cycles: 95953023 cumulative IPC: 0.521088 (Simulation time: 0 hr 23 min 58 sec) 

ChampSim completed all CPUs

Region of Interest Statistics

CPU 0 cumulative IPC: 0.521088 instructions: 50000000 cycles: 95953023

CPU 0 Average Load ROB stall cycles: 3.1371e+07
CPU 0 Fraction of times ROB stalled by Loads: 48.8718
CPU 0 Percentage of Load stall cycles in Total stall cycles: 3.09895e+08
Issued all: 35064898
Issued LT all: 29695914
rob_not_full_when_issued_lt_all: 21660476
Issued LT one: 23542674
rob_not_full_when_issued_lt_one: 16288853
 Total stall cycles: 80939939
 Total load stall cycles: 250828947894708
CPU 0 NUM of IPS identified critical: 0
CPU 0 Num of Load IPs stalling ROB: 46494
Threshold modification factor: 0
Max PIST entries: 64
Min PIST entries: 0
Avg PIST entries: 31.52
Trouble in retire width: 0.926887
MaC = Marked as critical.
lt_50_percent_before_Mac: 0
gt_90_percent_before_Mac: 0
gt_75_percent_before_Mac: 0
gt_50_percent_before_Mac: 0
stall_proportion_bin_same_before_after: 0
stall_proportion_bin_lower_before_after: 0
stall_proportion_bin_upper_before_after: 0
average_stall_proportion_before: -nan
average_stall_proportion_after: -nan
Critical IP stalls, total frequency: 0
Non-critical IP stalls, total frequency: 3907577
Total Freq all stalling IPs: 3907577
stat_90_percent_critical_ip_stalls_freq: 3516884
stat_90_percent_non_critical_ip_stalls_freq: 390693
Critical_IP_ROB_Stalls_Bucket_0: 0
Non-critical_IP_ROB_Stalls_Bucket_0: 1427491
Critical_IP_ROB_Stalls_Bucket_1: 0
Non-critical_IP_ROB_Stalls_Bucket_1: 771536
Critical_IP_ROB_Stalls_Bucket_2: 0
Non-critical_IP_ROB_Stalls_Bucket_2: 403536
Critical_IP_ROB_Stalls_Bucket_3: 0
Non-critical_IP_ROB_Stalls_Bucket_3: 269251
Critical_IP_ROB_Stalls_Bucket_4: 0
Non-critical_IP_ROB_Stalls_Bucket_4: 214607
Critical_IP_ROB_Stalls_Bucket_5: 0
Non-critical_IP_ROB_Stalls_Bucket_5: 225369
Critical_IP_ROB_Stalls_Bucket_6: 0
Non-critical_IP_ROB_Stalls_Bucket_6: 595787
0 => IPs accounting for >50 percent of stalls, 1 => 55, 2 => 60, 3 => 65 and so on till 90.
percent50: 50.0271 num IPs:  79
percent55: 55.0225 num IPs: 120
percent60: 60.0002 num IPs: 201
percent65: 65.0083 num IPs: 377
percent70: 70.0117 num IPs: 697
percent75: 75.0056 num IPs: 1179
percent80: 80.0042 num IPs: 1926
percent85: 85.0009 num IPs: 3306
percent90: 90.0013 num IPs: 5959
Critical_ROB_Stalls_Percent_0_Bucket_0: 312616
Non-critical_ROB_Stalls_Percent_0_Bucket_0: 1114875
Critical_ROB_Stalls_Percent_0_Bucket_1: 261488
Non-critical_ROB_Stalls_Percent_0_Bucket_1: 510048
Critical_ROB_Stalls_Percent_0_Bucket_2: 222069
Non-critical_ROB_Stalls_Percent_0_Bucket_2: 181467
Critical_ROB_Stalls_Percent_0_Bucket_3: 204905
Non-critical_ROB_Stalls_Percent_0_Bucket_3: 64346
Critical_ROB_Stalls_Percent_0_Bucket_4: 183483
Non-critical_ROB_Stalls_Percent_0_Bucket_4: 31124
Critical_ROB_Stalls_Percent_0_Bucket_5: 207087
Non-critical_ROB_Stalls_Percent_0_Bucket_5: 18282
Critical_ROB_Stalls_Percent_0_Bucket_6: 563201
Non-critical_ROB_Stalls_Percent_0_Bucket_6: 32586
Critical_ROB_Stalls_Percent_1_Bucket_0: 411094
Non-critical_ROB_Stalls_Percent_1_Bucket_0: 1016397
Critical_ROB_Stalls_Percent_1_Bucket_1: 329332
Non-critical_ROB_Stalls_Percent_1_Bucket_1: 442204
Critical_ROB_Stalls_Percent_1_Bucket_2: 244648
Non-critical_ROB_Stalls_Percent_1_Bucket_2: 158888
Critical_ROB_Stalls_Percent_1_Bucket_3: 208838
Non-critical_ROB_Stalls_Percent_1_Bucket_3: 60413
Critical_ROB_Stalls_Percent_1_Bucket_4: 184564
Non-critical_ROB_Stalls_Percent_1_Bucket_4: 30043
Critical_ROB_Stalls_Percent_1_Bucket_5: 207452
Non-critical_ROB_Stalls_Percent_1_Bucket_5: 17917
Critical_ROB_Stalls_Percent_1_Bucket_6: 564119
Non-critical_ROB_Stalls_Percent_1_Bucket_6: 31668
Critical_ROB_Stalls_Percent_2_Bucket_0: 487030
Non-critical_ROB_Stalls_Percent_2_Bucket_0: 940461
Critical_ROB_Stalls_Percent_2_Bucket_1: 403285
Non-critical_ROB_Stalls_Percent_2_Bucket_1: 368251
Critical_ROB_Stalls_Percent_2_Bucket_2: 266953
Non-critical_ROB_Stalls_Percent_2_Bucket_2: 136583
Critical_ROB_Stalls_Percent_2_Bucket_3: 217723
Non-critical_ROB_Stalls_Percent_2_Bucket_3: 51528
Critical_ROB_Stalls_Percent_2_Bucket_4: 188503
Non-critical_ROB_Stalls_Percent_2_Bucket_4: 26104
Critical_ROB_Stalls_Percent_2_Bucket_5: 209311
Non-critical_ROB_Stalls_Percent_2_Bucket_5: 16058
Critical_ROB_Stalls_Percent_2_Bucket_6: 571750
Non-critical_ROB_Stalls_Percent_2_Bucket_6: 24037
Critical_ROB_Stalls_Percent_3_Bucket_0: 579500
Non-critical_ROB_Stalls_Percent_3_Bucket_0: 847991
Critical_ROB_Stalls_Percent_3_Bucket_1: 458559
Non-critical_ROB_Stalls_Percent_3_Bucket_1: 312977
Critical_ROB_Stalls_Percent_3_Bucket_2: 292822
Non-critical_ROB_Stalls_Percent_3_Bucket_2: 110714
Critical_ROB_Stalls_Percent_3_Bucket_3: 226486
Non-critical_ROB_Stalls_Percent_3_Bucket_3: 42765
Critical_ROB_Stalls_Percent_3_Bucket_4: 193554
Non-critical_ROB_Stalls_Percent_3_Bucket_4: 21053
Critical_ROB_Stalls_Percent_3_Bucket_5: 212710
Non-critical_ROB_Stalls_Percent_3_Bucket_5: 12659
Critical_ROB_Stalls_Percent_3_Bucket_6: 576622
Non-critical_ROB_Stalls_Percent_3_Bucket_6: 19165
Critical_ROB_Stalls_Percent_4_Bucket_0: 671319
Non-critical_ROB_Stalls_Percent_4_Bucket_0: 756172
Critical_ROB_Stalls_Percent_4_Bucket_1: 518615
Non-critical_ROB_Stalls_Percent_4_Bucket_1: 252921
Critical_ROB_Stalls_Percent_4_Bucket_2: 317026
Non-critical_ROB_Stalls_Percent_4_Bucket_2: 86510
Critical_ROB_Stalls_Percent_4_Bucket_3: 234625
Non-critical_ROB_Stalls_Percent_4_Bucket_3: 34626
Critical_ROB_Stalls_Percent_4_Bucket_4: 197382
Non-critical_ROB_Stalls_Percent_4_Bucket_4: 17225
Critical_ROB_Stalls_Percent_4_Bucket_5: 215454
Non-critical_ROB_Stalls_Percent_4_Bucket_5: 9915
Critical_ROB_Stalls_Percent_4_Bucket_6: 581343
Non-critical_ROB_Stalls_Percent_4_Bucket_6: 14444
Critical_ROB_Stalls_Percent_5_Bucket_0: 769282
Non-critical_ROB_Stalls_Percent_5_Bucket_0: 658209
Critical_ROB_Stalls_Percent_5_Bucket_1: 582414
Non-critical_ROB_Stalls_Percent_5_Bucket_1: 189122
Critical_ROB_Stalls_Percent_5_Bucket_2: 335137
Non-critical_ROB_Stalls_Percent_5_Bucket_2: 68399
Critical_ROB_Stalls_Percent_5_Bucket_3: 241297
Non-critical_ROB_Stalls_Percent_5_Bucket_3: 27954
Critical_ROB_Stalls_Percent_5_Bucket_4: 200800
Non-critical_ROB_Stalls_Percent_5_Bucket_4: 13807
Critical_ROB_Stalls_Percent_5_Bucket_5: 217789
Non-critical_ROB_Stalls_Percent_5_Bucket_5: 7580
Critical_ROB_Stalls_Percent_5_Bucket_6: 584181
Non-critical_ROB_Stalls_Percent_5_Bucket_6: 11606
Critical_ROB_Stalls_Percent_6_Bucket_0: 887660
Non-critical_ROB_Stalls_Percent_6_Bucket_0: 539831
Critical_ROB_Stalls_Percent_6_Bucket_1: 631817
Non-critical_ROB_Stalls_Percent_6_Bucket_1: 139719
Critical_ROB_Stalls_Percent_6_Bucket_2: 349920
Non-critical_ROB_Stalls_Percent_6_Bucket_2: 53616
Critical_ROB_Stalls_Percent_6_Bucket_3: 246903
Non-critical_ROB_Stalls_Percent_6_Bucket_3: 22348
Critical_ROB_Stalls_Percent_6_Bucket_4: 203798
Non-critical_ROB_Stalls_Percent_6_Bucket_4: 10809
Critical_ROB_Stalls_Percent_6_Bucket_5: 219811
Non-critical_ROB_Stalls_Percent_6_Bucket_5: 5558
Critical_ROB_Stalls_Percent_6_Bucket_6: 586312
Non-critical_ROB_Stalls_Percent_6_Bucket_6: 9475
Critical_ROB_Stalls_Percent_7_Bucket_0: 1012315
Non-critical_ROB_Stalls_Percent_7_Bucket_0: 415176
Critical_ROB_Stalls_Percent_7_Bucket_1: 672944
Non-critical_ROB_Stalls_Percent_7_Bucket_1: 98592
Critical_ROB_Stalls_Percent_7_Bucket_2: 366200
Non-critical_ROB_Stalls_Percent_7_Bucket_2: 37336
Critical_ROB_Stalls_Percent_7_Bucket_3: 253033
Non-critical_ROB_Stalls_Percent_7_Bucket_3: 16218
Critical_ROB_Stalls_Percent_7_Bucket_4: 207245
Non-critical_ROB_Stalls_Percent_7_Bucket_4: 7362
Critical_ROB_Stalls_Percent_7_Bucket_5: 221476
Non-critical_ROB_Stalls_Percent_7_Bucket_5: 3893
Critical_ROB_Stalls_Percent_7_Bucket_6: 588265
Non-critical_ROB_Stalls_Percent_7_Bucket_6: 7522
Critical_ROB_Stalls_Percent_8_Bucket_0: 1139832
Non-critical_ROB_Stalls_Percent_8_Bucket_0: 287659
Critical_ROB_Stalls_Percent_8_Bucket_1: 714132
Non-critical_ROB_Stalls_Percent_8_Bucket_1: 57404
Critical_ROB_Stalls_Percent_8_Bucket_2: 380142
Non-critical_ROB_Stalls_Percent_8_Bucket_2: 23394
Critical_ROB_Stalls_Percent_8_Bucket_3: 259047
Non-critical_ROB_Stalls_Percent_8_Bucket_3: 10204
Critical_ROB_Stalls_Percent_8_Bucket_4: 210356
Non-critical_ROB_Stalls_Percent_8_Bucket_4: 4251
Critical_ROB_Stalls_Percent_8_Bucket_5: 222959
Non-critical_ROB_Stalls_Percent_8_Bucket_5: 2410
Critical_ROB_Stalls_Percent_8_Bucket_6: 590416
Non-critical_ROB_Stalls_Percent_8_Bucket_6: 5371
Average ROB occupancy Load Stall Begin: 120.987
Average ROB occupancy Load Stall End: 128.808
Min ROB occupancy Load Stall Begin: 1
Max ROB occupancy Load Stall Begin: 352
Min ROB occupancy Load Stall End: 1
Max ROB occupancy Load Stall End: 352
Average ROB occupancy Critical Load Stall Begin: -nan
Average ROB occupancy Critical Load Stall End: -nan
Min ROB occupancy Critical Load Stall Begin: 400
Max ROB occupancy Critical Load Stall Begin: 0
Min ROB occupancy Critical Load Stall End: 400
Max ROB occupancy Critical Load Stall End: 0
 ROB Load Stall Begin Bucket Count 0: 1705735
 ROB Load Stall End Bucket Count 0: 1427491
 ROB Critical Load Stall Begin Bucket Count 0: 0
 ROB Critical Load Stall End Bucket Count 0: 0
 ROB Load Stall Begin Bucket Count 1: 600231
 ROB Load Stall End Bucket Count 1: 771536
 ROB Critical Load Stall Begin Bucket Count 1: 0
 ROB Critical Load Stall End Bucket Count 1: 0
 ROB Load Stall Begin Bucket Count 2: 348279
 ROB Load Stall End Bucket Count 2: 403536
 ROB Critical Load Stall Begin Bucket Count 2: 0
 ROB Critical Load Stall End Bucket Count 2: 0
 ROB Load Stall Begin Bucket Count 3: 245677
 ROB Load Stall End Bucket Count 3: 269251
 ROB Critical Load Stall Begin Bucket Count 3: 0
 ROB Critical Load Stall End Bucket Count 3: 0
 ROB Load Stall Begin Bucket Count 4: 209264
 ROB Load Stall End Bucket Count 4: 214607
 ROB Critical Load Stall Begin Bucket Count 4: 0
 ROB Critical Load Stall End Bucket Count 4: 0
 ROB Load Stall Begin Bucket Count 5: 219780
 ROB Load Stall End Bucket Count 5: 225369
 ROB Critical Load Stall Begin Bucket Count 5: 0
 ROB Critical Load Stall End Bucket Count 5: 0
 ROB Load Stall Begin Bucket Count 6: 578612
 ROB Load Stall End Bucket Count 6: 595787
 ROB Critical Load Stall Begin Bucket Count 6: 0
 ROB Critical Load Stall End Bucket Count 6: 0
PIST Tag Read Accesses: 2075210
PIST Read Accesses: 1037605
PIST Tag Write Accesses: 2075210
PIST Write Accesses: 1037605
Criticality detector called times: 2432734
Max global_stall_cycles_count: 3456860
Threshold Modified: 0 times, factor: 0
Sturdy critical IP cache stats: 
 Unused entries: 0
CIC Tag Read Accesses: 0
CIC Read Accesses: 0
CIC Tag Write Accesses: 0
CIC Write Accesses: 0
Wobbly critical IP cache stats: 
 Unused entries: 67
CIC Tag Read Accesses: 156381632
CIC Read Accesses: 0
CIC Tag Write Accesses: 80019
CIC Write Accesses: 0
ITLB TOTAL     ACCESS:    9884411  HIT:    9689125  MISS:     195286  HIT %:    98.0243  MISS %:     1.9757   MPKI: 3.90572
ITLB LOAD TRANSLATION ACCESS:    8907340  HIT:    8838302  MISS:      69038  HIT %:    99.2249  MISS %:   0.775069   MPKI: 1.38076
ITLB TRANSLATION FROM L1D PREFETCHER ACCESS:     977071  HIT:     850823  MISS:     126248  HIT %:    87.0789  MISS %:    12.9211   MPKI: 2.52496
ITLB PREFETCH  REQUESTED:          0  ISSUED:          0  USEFUL:     104025  USELESS:      22232
ITLB USEFUL LOAD PREFETCHES:     104025 PREFETCH ISSUED TO LOWER LEVEL:          0  ACCURACY: inf
ITLB TIMELY PREFETCHES:     104025 LATE PREFETCHES: 604 DROPPED PREFETCHES: 8343
ITLB PREFETCHES SAME FILL-ORIGIN LEVEL: 0 DIFFERENT FILL-ORIGIN LEVEL: 0
ITLB AVERAGE MISS LATENCY: 197320 cycles
ITLB RQ	ACCESS:   12965319	FORWARD:          0	MERGED:    3046212	TO_CACHE:    9919107

DTLB TOTAL     ACCESS:   10664962  HIT:    9158582  MISS:    1506380  HIT %:    85.8754  MISS %:    14.1246   MPKI: 30.1276
DTLB LOAD TRANSLATION ACCESS:   10664962  HIT:    9158582  MISS:    1506380  HIT %:    85.8754  MISS %:    14.1246   MPKI: 30.1276
DTLB PREFETCH  REQUESTED:          0  ISSUED:          0  USEFUL:          0  USELESS:          0
DTLB USEFUL LOAD PREFETCHES:          0 PREFETCH ISSUED TO LOWER LEVEL:          0  ACCURACY: -nan
DTLB TIMELY PREFETCHES:          0 LATE PREFETCHES: 0 DROPPED PREFETCHES: 0
DTLB PREFETCHES SAME FILL-ORIGIN LEVEL: 0 DIFFERENT FILL-ORIGIN LEVEL: 0
DTLB AVERAGE MISS LATENCY: 11.4939 cycles
DTLB RQ	ACCESS:   13827141	FORWARD:          0	MERGED:    3130180	TO_CACHE:   10696961

STLB TOTAL     ACCESS:    3003083  HIT:    2895153  MISS:     107930  HIT %:     96.406  MISS %:    3.59397   MPKI: 2.1586
STLB LOAD TRANSLATION ACCESS:    1574815  HIT:    1487545  MISS:      87270  HIT %:    94.4584  MISS %:     5.5416   MPKI: 1.7454
STLB TRANSLATION FROM L1D PREFETCHER ACCESS:    1428268  HIT:    1407608  MISS:      20660  HIT %:    98.5535  MISS %:    1.44651   MPKI: 0.4132
STLB PREFETCH  REQUESTED:          0  ISSUED:          0  USEFUL:      11675  USELESS:       9029
STLB USEFUL LOAD PREFETCHES:      11675 PREFETCH ISSUED TO LOWER LEVEL:          0  ACCURACY: inf
STLB TIMELY PREFETCHES:      11675 LATE PREFETCHES: 0 DROPPED PREFETCHES: 8344
STLB PREFETCHES SAME FILL-ORIGIN LEVEL: 0 DIFFERENT FILL-ORIGIN LEVEL: 0
STLB AVERAGE MISS LATENCY: 48.8561 cycles
STLB RQ	ACCESS:    4422945	FORWARD:          0	MERGED:    1411518	TO_CACHE:    3011427

STLB Hit, L1D data hit: 0
STLB Hit, L2C data hit: 0
STLB Hit, LLC data hit: 0
STLB Hit, LLC data miss: 0
STLB STLB hints to L2: 0
L1D TOTAL     ACCESS:   16308212  HIT:   12725425  MISS:    3582787  HIT %:    78.0308  MISS %:    21.9692   MPKI: 71.6557
L1D LOAD      ACCESS:    8981591  HIT:    7076566  MISS:    1905025  HIT %:    78.7897  MISS %:    21.2103   MPKI: 38.1005
L1D RFO       ACCESS:    4661408  HIT:    4547866  MISS:     113542  HIT %:    97.5642  MISS %:    2.43579   MPKI: 2.27084
L1D PREFETCH  ACCESS:    2665213  HIT:    1100993  MISS:    1564220  HIT %:    41.3098  MISS %:    58.6902   MPKI: 31.2844
L1D PREFETCH  REQUESTED:    5426754  ISSUED:    5425870  USEFUL:     123033  USELESS:    1441178
L1D USEFUL LOAD PREFETCHES:     123033 PREFETCH ISSUED TO LOWER LEVEL:    1601984  ACCURACY: 7.68004
L1D TIMELY PREFETCHES:     123033 LATE PREFETCHES: 37759 DROPPED PREFETCHES: 0
L1D PREFETCHES SAME FILL-ORIGIN LEVEL: 1601984 DIFFERENT FILL-ORIGIN LEVEL: 0
L1D AVERAGE MISS LATENCY: 698290 cycles
L1D RQ	ACCESS:   12433993	FORWARD:          0	MERGED:    3332035	TO_CACHE:    9017527
L1D WQ	ACCESS:    4946118	FORWARD:      84431	MERGED:     136504	TO_CACHE:    4809614
L1D PQ	ACCESS:    2712935	FORWARD:          0	MERGED:          0	TO_CACHE:    2712935

L1D UNIQUE REGIONS ACCESSED: 0
L1D REGIONS CONFLICTS: 0
L1D Cross Page Prefetch Requests: 0
L1D Same Page Prefetch Requests: 2712935
L1D ROI Sum of L1D PQ occupancy: 35844442
L1D PREFETCHES PUSHED FROM L2C: 0
L1I TOTAL     ACCESS:   12821141  HIT:   11157880  MISS:    1663261  HIT %:    87.0272  MISS %:    12.9728   MPKI: 33.2652
L1I LOAD      ACCESS:   10510452  HIT:   10262674  MISS:     247778  HIT %:    97.6426  MISS %:    2.35744   MPKI: 4.95556
L1I PREFETCH  ACCESS:    2310689  HIT:     895206  MISS:    1415483  HIT %:     38.742  MISS %:     61.258   MPKI: 28.3097
L1I PREFETCH  REQUESTED:    2528933  ISSUED:    2520654  USEFUL:     898751  USELESS:     516672
L1I USEFUL LOAD PREFETCHES:     898751 PREFETCH ISSUED TO LOWER LEVEL:    1446161  ACCURACY: 62.1474
L1I TIMELY PREFETCHES:     898751 LATE PREFETCHES: 30678 DROPPED PREFETCHES: 20963
L1I PREFETCHES SAME FILL-ORIGIN LEVEL: 1446161 DIFFERENT FILL-ORIGIN LEVEL: 0
L1I AVERAGE MISS LATENCY: 1.07352e+06 cycles
L1I RQ	ACCESS:   15255697	FORWARD:          0	MERGED:    4722310	TO_CACHE:   10533387
L1I PQ	ACCESS:    2520654	FORWARD:          0	MERGED:      88722	TO_CACHE:    2431932

BTB TOTAL     ACCESS:    6734670  HIT:    5946798  MISS:     787872  HIT %:    88.3013  MISS %:    11.6987   MPKI: 15.7574
BTB BRANCH_DIRECT_JUMP	ACCESS:     551642  HIT:     494500  MISS:      57142
BTB BRANCH_INDIRECT	ACCESS:     139368  HIT:     102277  MISS:      37091
BTB BRANCH_CONDITIONAL	ACCESS:    4079633  HIT:    3873989  MISS:     205644
BTB BRANCH_DIRECT_CALL	ACCESS:     776072  HIT:     672148  MISS:     103924
BTB BRANCH_INDIRECT_CALL	ACCESS:     194644  HIT:     163518  MISS:      31126
BTB BRANCH_RETURN	ACCESS:     993311  HIT:     640366  MISS:     352945
BTB BRANCH_OTHER ACCESS:          0  HIT:          0  MISS:          0

L2C TOTAL     ACCESS:    5627611  HIT:    4644130  MISS:     983481  HIT %:     82.524  MISS %:     17.476   MPKI: 19.6696
L2C LOAD      ACCESS:    2084360  HIT:    1724054  MISS:     360306  HIT %:    82.7138  MISS %:    17.2862   MPKI: 7.20612
L2C DATA LOAD MPKI: 5.34598
L2C INSTRUCTION LOAD MPKI: 1.86014
L2C RFO       ACCESS:     113535  HIT:      63121  MISS:      50414  HIT %:    55.5961  MISS %:    44.4039   MPKI: 1.00828
L2C PREFETCH  ACCESS:    3048145  HIT:    2552118  MISS:     496027  HIT %:    83.7269  MISS %:    16.2731   MPKI: 9.92054
L2C DATA PREFETCH MPKI: 0.18338
L2C INSTRUCTION PREFETCH MPKI: 9.73716
L2C WRITEBACK ACCESS:     230525  HIT:     209586  MISS:      20939  HIT %:    90.9168  MISS %:    9.08318   MPKI: 0.41878
L2C LOAD TRANSLATION ACCESS:     113747  HIT:      66152  MISS:      47595  HIT %:    58.1571  MISS %:    41.8429   MPKI: 0.9519
L2C TRANSLATION FROM L1D PREFETCHER ACCESS:      37299  HIT:      29099  MISS:       8200  HIT %:    78.0155  MISS %:    21.9845   MPKI: 0.164
L2C PREFETCH  REQUESTED:          0  ISSUED:          0  USEFUL:      18456  USELESS:     485772
L2C USEFUL LOAD PREFETCHES:      18456 PREFETCH ISSUED TO LOWER LEVEL:     496027  ACCURACY: 3.72077
L2C TIMELY PREFETCHES:      18456 LATE PREFETCHES: 0 DROPPED PREFETCHES: 0
L2C PREFETCHES SAME FILL-ORIGIN LEVEL: 0 DIFFERENT FILL-ORIGIN LEVEL: 0
L2C AVERAGE MISS LATENCY: 48.3481 cycles
L2C RQ	ACCESS:    2348949	FORWARD:          0	MERGED:          0	TO_CACHE:    2348941
L2C WQ	ACCESS:     230525	FORWARD:          8	MERGED:          0	TO_CACHE:     230525
L2C PQ	ACCESS:    3048145	FORWARD:          0	MERGED:          0	TO_CACHE:    3048145

L2C Instructions Evicting Data 203774
L2C Translations Evicting Data 19536
L2C Data Evicting Data 117124
L2C Instructions Evicting Instructions 343454
L2C Translations Evicting Instructions 33007
L2C Data Evicting Instructions 190906
L2C Instructions Evicting Translations 32637
L2C Translations Evicting Translations 3252
L2C Data Evicting Translations 18852
L2C Dense regions hint from L2: 0
PSCL5 TOTAL     ACCESS:     116274  HIT:     116274  MISS:          0  HIT %:        100  MISS %:          0   MPKI: 0
PSCL5 LOAD TRANSLATION ACCESS:      87270  HIT:      87270  MISS:          0  HIT %:        100  MISS %:          0   MPKI: 0
PSCL5 TRANSLATION FROM L1D PREFETCHER ACCESS:      29004  HIT:      29004  MISS:          0  HIT %:        100  MISS %:          0   MPKI: 0
PSCL5 PREFETCH  REQUESTED:          0  ISSUED:          0  USEFUL:          0  USELESS:          0
PSCL5 USEFUL LOAD PREFETCHES:          0 PREFETCH ISSUED TO LOWER LEVEL:          0  ACCURACY: -nan
PSCL5 TIMELY PREFETCHES:          0 LATE PREFETCHES: 0 DROPPED PREFETCHES: 0
PSCL5 PREFETCHES SAME FILL-ORIGIN LEVEL: 0 DIFFERENT FILL-ORIGIN LEVEL: 0

PSCL4 TOTAL     ACCESS:     109627  HIT:     109367  MISS:        260  HIT %:    99.7628  MISS %:   0.237168   MPKI: 0.0052
PSCL4 LOAD TRANSLATION ACCESS:      84366  HIT:      84106  MISS:        260  HIT %:    99.6918  MISS %:   0.308181   MPKI: 0.0052
PSCL4 TRANSLATION FROM L1D PREFETCHER ACCESS:      25261  HIT:      25261  MISS:          0  HIT %:        100  MISS %:          0   MPKI: 0
PSCL4 PREFETCH  REQUESTED:          0  ISSUED:          0  USEFUL:          0  USELESS:          0
PSCL4 USEFUL LOAD PREFETCHES:          0 PREFETCH ISSUED TO LOWER LEVEL:          0  ACCURACY: -nan
PSCL4 TIMELY PREFETCHES:          0 LATE PREFETCHES: 0 DROPPED PREFETCHES: 0
PSCL4 PREFETCHES SAME FILL-ORIGIN LEVEL: 0 DIFFERENT FILL-ORIGIN LEVEL: 0

PSCL3 TOTAL     ACCESS:     115059  HIT:     114404  MISS:        655  HIT %:    99.4307  MISS %:   0.569273   MPKI: 0.0131
PSCL3 LOAD TRANSLATION ACCESS:      86904  HIT:      86249  MISS:        655  HIT %:    99.2463  MISS %:   0.753705   MPKI: 0.0131
PSCL3 TRANSLATION FROM L1D PREFETCHER ACCESS:      28155  HIT:      28155  MISS:          0  HIT %:        100  MISS %:          0   MPKI: 0
PSCL3 PREFETCH  REQUESTED:          0  ISSUED:          0  USEFUL:          0  USELESS:          0
PSCL3 USEFUL LOAD PREFETCHES:          0 PREFETCH ISSUED TO LOWER LEVEL:          0  ACCURACY: -nan
PSCL3 TIMELY PREFETCHES:          0 LATE PREFETCHES: 0 DROPPED PREFETCHES: 0
PSCL3 PREFETCHES SAME FILL-ORIGIN LEVEL: 0 DIFFERENT FILL-ORIGIN LEVEL: 0

PSCL2 TOTAL     ACCESS:     111720  HIT:      82977  MISS:      28743  HIT %:    74.2723  MISS %:    25.7277   MPKI: 0.57486
PSCL2 LOAD TRANSLATION ACCESS:      90234  HIT:      61491  MISS:      28743  HIT %:    68.1462  MISS %:    31.8538   MPKI: 0.57486
PSCL2 TRANSLATION FROM L1D PREFETCHER ACCESS:      21486  HIT:      21486  MISS:          0  HIT %:        100  MISS %:          0   MPKI: 0
PSCL2 PREFETCH  REQUESTED:          0  ISSUED:          0  USEFUL:          0  USELESS:          0
PSCL2 USEFUL LOAD PREFETCHES:          0 PREFETCH ISSUED TO LOWER LEVEL:          0  ACCURACY: -nan
PSCL2 TIMELY PREFETCHES:          0 LATE PREFETCHES: 0 DROPPED PREFETCHES: 0
PSCL2 PREFETCHES SAME FILL-ORIGIN LEVEL: 0 DIFFERENT FILL-ORIGIN LEVEL: 0

LLC TOTAL     ACCESS:    1076354  HIT:     960962  MISS:     115392  HIT %:    89.2794  MISS %:    10.7206   MPKI: 2.30784
LLC LOAD      ACCESS:     360303  HIT:     297540  MISS:      62763  HIT %:    82.5805  MISS %:    17.4195   MPKI: 1.25526
LLC RFO       ACCESS:      50414  HIT:      33186  MISS:      17228  HIT %:     65.827  MISS %:     34.173   MPKI: 0.34456
LLC PREFETCH  ACCESS:     496027  HIT:     465758  MISS:      30269  HIT %:    93.8977  MISS %:    6.10229   MPKI: 0.60538
LLC WRITEBACK ACCESS:     113815  HIT:     111248  MISS:       2567  HIT %:    97.7446  MISS %:    2.25541   MPKI: 0.05134
LLC LOAD TRANSLATION ACCESS:      47595  HIT:      45142  MISS:       2453  HIT %:    94.8461  MISS %:     5.1539   MPKI: 0.04906
LLC TRANSLATION FROM L1D PREFETCHER ACCESS:       8200  HIT:       8088  MISS:        112  HIT %:    98.6341  MISS %:    1.36585   MPKI: 0.00224
LLC PREFETCH  REQUESTED:          0  ISSUED:          0  USEFUL:       1655  USELESS:      26655
LLC USEFUL LOAD PREFETCHES:       1655 PREFETCH ISSUED TO LOWER LEVEL:      30269  ACCURACY: 5.46764
LLC TIMELY PREFETCHES:       1655 LATE PREFETCHES: 0 DROPPED PREFETCHES: 0
LLC PREFETCHES SAME FILL-ORIGIN LEVEL: 0 DIFFERENT FILL-ORIGIN LEVEL: 0
LLC AVERAGE MISS LATENCY: 161.313 cycles
LLC RQ	ACCESS:     466515	FORWARD:          0	MERGED:          0	TO_CACHE:     466512
LLC WQ	ACCESS:     113815	FORWARD:          3	MERGED:          0	TO_CACHE:     113815
LLC PQ	ACCESS:     496027	FORWARD:          0	MERGED:          0	TO_CACHE:     496027

LLC Dense regions hint to LLC: 0

RAW hits: 1029067
Loads Generated: 13463062
Loads sent to L1D: 12433993
Stores Generated: 4946117
Stores sent to L1D: 4946118
Major fault: 0 Minor fault: 7942
Allocated PAGES: 7942
I-Shadow cache 408 bytes
Touched + WorthPF tables 6144 bytes 
MMA filter 174 bytes 
FNL filter 272 bytes 
TOTAL PREFETCHER STORAGE SIZE: 25174 bytes
CPU 0 L1I next line prefetcher final stats

stream: 
stream:times selected: 1813414
stream:pref_filled: 1031227
stream:pref_useful: 23719
stream:pref_late: 674
stream:misses: 748826
stream:misses_by_poll: 0

CS: 
CS:times selected: 494154
CS:pref_filled: 216134
CS:pref_useful: 38934
CS:pref_late: 45
CS:misses: 29244
CS:misses_by_poll: 0

CPLX: 
CPLX:times selected: 1650281
CPLX:pref_filled: 316829
CPLX:pref_useful: 60371
CPLX:pref_late: 36
CPLX:misses: 615565
CPLX:misses_by_poll: 107

NL_L1: 
NL:times selected: 19113
NL:pref_filled: 30
NL:pref_useful: 9
NL:pref_late: 1
NL:misses: 23
NL:misses_by_poll: 0

total selections: 3976962
total_filled: 1564220
total_useful: 123033
total_late: 37759
total_polluted: 107
total_misses_after_warmup: 1398329
conflicts: 333
Degree Incremented Times: 0
Degree Decremented Times: 28761

L1 IP Table Write Accesses: 2416974
L1 IP Table Read Accesses: 2416641
L1 RST Write Accesses: 1813417
L1 RST Read Accesses: 3626825
L1 CSPT Write Accesses: 1813417
L1 CSPT Read Accesses: 3465363
L1 RR Filter Tag Write Accesses: 2713819
L1 RR Filter Tag Read Accesses: 105261199
L1 IP Table Tag Write Accesses: 2439596
L1 IP Table Tag Read Accesses: 2439596
L1 RST Tag Write Accesses: 56
L1 RST Tag Read Accesses: 14265631
L1 RR Filter Write Accesses: 0
L1 RR Filter Read Accesses: 3313046
test: 1022710

DRAM Statistics
 CHANNEL 0
 RQ ROW_BUFFER_HIT:      23386  ROW_BUFFER_MISS:      89438
 DBUS_CONGESTED:         88
 WQ ROW_BUFFER_HIT:       9741  ROW_BUFFER_MISS:      39510  FULL:          0

 AVG_CONGESTED_CYCLE: 4
 All warmup complete: 2
Channel 0 Bank busy for read cycles: 0
Channel 0 Bank busy for write cycles: 0
Channel 0
Rank 0
0banks busy for read cycles: 81760693
0banks busy for write cycles: 21063
1banks busy for read cycles: 6592332
1banks busy for write cycles: 2986752
2banks busy for read cycles: 1568108
2banks busy for write cycles: 857234
3banks busy for read cycles: 482720
3banks busy for write cycles: 334056
4banks busy for read cycles: 232884
4banks busy for write cycles: 189815
5banks busy for read cycles: 146405
5banks busy for write cycles: 133219
6banks busy for read cycles: 143548
6banks busy for write cycles: 99273
7banks busy for read cycles: 70806
7banks busy for write cycles: 100349
8banks busy for read cycles: 53508
8banks busy for write cycles: 180259

CPU 0 Branch Prediction Accuracy: 98.1603% MPKI: 3.89124 Average ROB Occupancy at Mispredict: 40.4091
Branch types
NOT_BRANCH: 39423761 78.8475%
BRANCH_DIRECT_JUMP: 551642 1.10328%
BRANCH_INDIRECT: 139368 0.278736%
BRANCH_CONDITIONAL: 7920860 15.8417%
BRANCH_DIRECT_CALL: 776072 1.55214%
BRANCH_INDIRECT_CALL: 194644 0.389288%
BRANCH_RETURN: 993311 1.98662%
BRANCH_OTHER: 0 0%

DRAM PAGES: 1048576
Allocated PAGES: 7942
