
*** ChampSim Multicore Out-of-Order Simulator ***

Warmup Instructions: 50000000
Simulation Instructions: 50000000
Number of CPUs: 1
LLC sets: 2048
LLC ways: 16
Off-chip DRAM Size: 4096 MB Channels: 1 Width: 64-bit Data Rate: 6400 MT/s
CPU 0 runs ../IPC-traces//server_025.champsimtrace.xz
.xz
NUM_OF_IPS_IN_CRITICAL_IP_TRAINING: 64
NUM_OF_CRITICAL_IP_TRAINING_TABLE_WAYS: 2
NUM_OF_CRITICAL_IP_TRAINING_TABLE_SETS: 32
WOBBLY_CRITICAL_IP_CACHE_SETS: 32
WOBBLY_CRITICAL_IP_CACHE_WAYS: 4
BTB has LRU replacement policy
ITLB has LRU replacement policy
DTLB has LRU replacement policy
STLB has LRU replacement policy
CPU 0 L1I next line prefetcher
L1I has LRU replacement policy
IP Table Entries: 64
L1D has LRU replacement policy
Initialize SRRIP state for L2C
Initialize DRRIP state for LLC
Heartbeat CPU 0 instructions: 10000000 cycles: 2887749 heartbeat IPC: 3.4629 cumulative IPC: 3.4629 (Simulation time: 0 hr 2 min 6 sec) 
Heartbeat CPU 0 instructions: 20000003 cycles: 5773977 heartbeat IPC: 3.46473 cumulative IPC: 3.46382 (Simulation time: 0 hr 4 min 10 sec) 
Heartbeat CPU 0 instructions: 30000001 cycles: 8656279 heartbeat IPC: 3.46945 cumulative IPC: 3.46569 (Simulation time: 0 hr 6 min 15 sec) 
Heartbeat CPU 0 instructions: 40000001 cycles: 11541688 heartbeat IPC: 3.46571 cumulative IPC: 3.4657 (Simulation time: 0 hr 8 min 21 sec) 
Heartbeat CPU 0 instructions: 50000001 cycles: 14426040 heartbeat IPC: 3.46698 cumulative IPC: 3.46595 (Simulation time: 0 hr 10 min 19 sec) 

Warmup complete CPU 0 instructions: 50000001 cycles: 14426040 (Simulation time: 0 hr 10 min 19 sec) 

% increase in all ip prefetch 420.35
% increase in all ip prefetch 0.247944
Heartbeat CPU 0 instructions: 60000000 cycles: 30830816 heartbeat IPC: 0.609578 cumulative IPC: 0.609578 (Simulation time: 0 hr 12 min 41 sec) 
Heartbeat CPU 0 instructions: 70000000 cycles: 47310190 heartbeat IPC: 0.606819 cumulative IPC: 0.608196 (Simulation time: 0 hr 15 min 3 sec) 
Heartbeat CPU 0 instructions: 80000002 cycles: 63716329 heartbeat IPC: 0.609528 cumulative IPC: 0.608639 (Simulation time: 0 hr 17 min 26 sec) 
Heartbeat CPU 0 instructions: 90000002 cycles: 78757841 heartbeat IPC: 0.664827 cumulative IPC: 0.621776 (Simulation time: 0 hr 19 min 46 sec) 
Heartbeat CPU 0 instructions: 100000003 cycles: 92627046 heartbeat IPC: 0.721022 cumulative IPC: 0.639378 (Simulation time: 0 hr 22 min 58 sec) 
Finished CPU 0 instructions: 50000002 cycles: 78201006 cumulative IPC: 0.639378 (Simulation time: 0 hr 22 min 58 sec) 

ChampSim completed all CPUs

Region of Interest Statistics

CPU 0 cumulative IPC: 0.639378 instructions: 50000002 cycles: 78201006

CPU 0 Average Load ROB stall cycles: 1.94676e+07
CPU 0 Fraction of times ROB stalled by Loads: 36.2068
CPU 0 Percentage of Load stall cycles in Total stall cycles: 2.81091e+08
Issued all: 27631558
Issued LT all: 21861274
rob_not_full_when_issued_lt_all: 21608256
Issued LT one: 16810785
rob_not_full_when_issued_lt_one: 16591986
 Total stall cycles: 65072101
 Total load stall cycles: 182911634614770
Unique Load IPs: 13966
CPU 0 NUM of IPS identified critical: 14
CPU 0 Num of Load IPs stalling ROB: 12131
Threshold modification factor: -1
Max PIST entries: 64
Min PIST entries: 0
Avg PIST entries: 31.95
Trouble in retire width: 0.905315
MaC = Marked as critical.
lt_50_percent_before_Mac: 14
gt_90_percent_before_Mac: 0
gt_75_percent_before_Mac: 0
gt_50_percent_before_Mac: 0
stall_proportion_bin_same_before_after: 0
stall_proportion_bin_lower_before_after: 0
stall_proportion_bin_upper_before_after: 0
average_stall_proportion_before: 0.0715177
average_stall_proportion_after: 0.0782372
Critical IP stalls, total frequency: 220256
Non-critical IP stalls, total frequency: 3181626
Total Freq all stalling IPs: 3401882
Critical_IP_Detector_Accuracy_70: 0.928571
Critical_IP_Detector_Accuracy_80: 0.928571
Critical_IP_Detector_Accuracy_90: 1
Critical_IP_Detector_Coverage_70: 0.00927247
Critical_IP_Detector_Coverage_80: 0.00611189
Critical_IP_Detector_Coverage_90: 0.0041841
stat_90_percent_critical_ip_stalls_freq: 3061858
stat_90_percent_non_critical_ip_stalls_freq: 340024
AVERAGE_ROB_Occupancy_90_Percent_Critical_IP_Stalls: 50.5926
AVERAGE_ROB_Occupancy_90_Percent_Non_Critical_IP_Stalls: 26.5148
Critical_IP_ROB_Stalls_Bucket_0: 29039
Non-critical_IP_ROB_Stalls_Bucket_0: 2245318
Critical_IP_ROB_Stalls_Bucket_1: 95862
Non-critical_IP_ROB_Stalls_Bucket_1: 632343
Critical_IP_ROB_Stalls_Bucket_2: 59547
Non-critical_IP_ROB_Stalls_Bucket_2: 215277
Critical_IP_ROB_Stalls_Bucket_3: 14421
Non-critical_IP_ROB_Stalls_Bucket_3: 65484
Critical_IP_ROB_Stalls_Bucket_4: 5054
Non-critical_IP_ROB_Stalls_Bucket_4: 14528
Critical_IP_ROB_Stalls_Bucket_5: 4018
Non-critical_IP_ROB_Stalls_Bucket_5: 5370
Critical_IP_ROB_Stalls_Bucket_6: 12315
Non-critical_IP_ROB_Stalls_Bucket_6: 3306
0 => IPs accounting for >50 percent of stalls, 1 => 55, 2 => 60, 3 => 65 and so on till 90.
percent50: 50.0197 num IPs:  428
percent55: 55.0149 num IPs: 616
percent60: 60.0179 num IPs: 864
percent65: 65.0015 num IPs: 1127
percent70: 70.0144 num IPs: 1402
percent75: 75.0097 num IPs: 1744
percent80: 80.0035 num IPs: 2127
percent85: 85.0053 num IPs: 2596
percent90: 90.0045 num IPs: 3346
Critical_ROB_Stalls_Percent_0_Bucket_0: 865310
Non-critical_ROB_Stalls_Percent_0_Bucket_0: 1409047
Critical_ROB_Stalls_Percent_0_Bucket_1: 504895
Non-critical_ROB_Stalls_Percent_0_Bucket_1: 223310
Critical_ROB_Stalls_Percent_0_Bucket_2: 220139
Non-critical_ROB_Stalls_Percent_0_Bucket_2: 54685
Critical_ROB_Stalls_Percent_0_Bucket_3: 71994
Non-critical_ROB_Stalls_Percent_0_Bucket_3: 7911
Critical_ROB_Stalls_Percent_0_Bucket_4: 16967
Non-critical_ROB_Stalls_Percent_0_Bucket_4: 2615
Critical_ROB_Stalls_Percent_0_Bucket_5: 8145
Non-critical_ROB_Stalls_Percent_0_Bucket_5: 1243
Critical_ROB_Stalls_Percent_0_Bucket_6: 14161
Non-critical_ROB_Stalls_Percent_0_Bucket_6: 1460
Critical_ROB_Stalls_Percent_1_Bucket_0: 985685
Non-critical_ROB_Stalls_Percent_1_Bucket_0: 1288672
Critical_ROB_Stalls_Percent_1_Bucket_1: 542889
Non-critical_ROB_Stalls_Percent_1_Bucket_1: 185316
Critical_ROB_Stalls_Percent_1_Bucket_2: 229866
Non-critical_ROB_Stalls_Percent_1_Bucket_2: 44958
Critical_ROB_Stalls_Percent_1_Bucket_3: 73223
Non-critical_ROB_Stalls_Percent_1_Bucket_3: 6682
Critical_ROB_Stalls_Percent_1_Bucket_4: 17446
Non-critical_ROB_Stalls_Percent_1_Bucket_4: 2136
Critical_ROB_Stalls_Percent_1_Bucket_5: 8199
Non-critical_ROB_Stalls_Percent_1_Bucket_5: 1189
Critical_ROB_Stalls_Percent_1_Bucket_6: 14235
Non-critical_ROB_Stalls_Percent_1_Bucket_6: 1386
Critical_ROB_Stalls_Percent_2_Bucket_0: 1119869
Non-critical_ROB_Stalls_Percent_2_Bucket_0: 1154488
Critical_ROB_Stalls_Percent_2_Bucket_1: 571744
Non-critical_ROB_Stalls_Percent_2_Bucket_1: 156461
Critical_ROB_Stalls_Percent_2_Bucket_2: 235255
Non-critical_ROB_Stalls_Percent_2_Bucket_2: 39569
Critical_ROB_Stalls_Percent_2_Bucket_3: 74469
Non-critical_ROB_Stalls_Percent_2_Bucket_3: 5436
Critical_ROB_Stalls_Percent_2_Bucket_4: 17910
Non-critical_ROB_Stalls_Percent_2_Bucket_4: 1672
Critical_ROB_Stalls_Percent_2_Bucket_5: 8244
Non-critical_ROB_Stalls_Percent_2_Bucket_5: 1144
Critical_ROB_Stalls_Percent_2_Bucket_6: 14249
Non-critical_ROB_Stalls_Percent_2_Bucket_6: 1372
Critical_ROB_Stalls_Percent_3_Bucket_0: 1240511
Non-critical_ROB_Stalls_Percent_3_Bucket_0: 1033846
Critical_ROB_Stalls_Percent_3_Bucket_1: 609716
Non-critical_ROB_Stalls_Percent_3_Bucket_1: 118489
Critical_ROB_Stalls_Percent_3_Bucket_2: 245457
Non-critical_ROB_Stalls_Percent_3_Bucket_2: 29367
Critical_ROB_Stalls_Percent_3_Bucket_3: 75183
Non-critical_ROB_Stalls_Percent_3_Bucket_3: 4722
Critical_ROB_Stalls_Percent_3_Bucket_4: 17920
Non-critical_ROB_Stalls_Percent_3_Bucket_4: 1662
Critical_ROB_Stalls_Percent_3_Bucket_5: 8245
Non-critical_ROB_Stalls_Percent_3_Bucket_5: 1143
Critical_ROB_Stalls_Percent_3_Bucket_6: 14249
Non-critical_ROB_Stalls_Percent_3_Bucket_6: 1372
Critical_ROB_Stalls_Percent_4_Bucket_0: 1388361
Non-critical_ROB_Stalls_Percent_4_Bucket_0: 885996
Critical_ROB_Stalls_Percent_4_Bucket_1: 628994
Non-critical_ROB_Stalls_Percent_4_Bucket_1: 99211
Critical_ROB_Stalls_Percent_4_Bucket_2: 248379
Non-critical_ROB_Stalls_Percent_4_Bucket_2: 26445
Critical_ROB_Stalls_Percent_4_Bucket_3: 75476
Non-critical_ROB_Stalls_Percent_4_Bucket_3: 4429
Critical_ROB_Stalls_Percent_4_Bucket_4: 18110
Non-critical_ROB_Stalls_Percent_4_Bucket_4: 1472
Critical_ROB_Stalls_Percent_4_Bucket_5: 8245
Non-critical_ROB_Stalls_Percent_4_Bucket_5: 1143
Critical_ROB_Stalls_Percent_4_Bucket_6: 14249
Non-critical_ROB_Stalls_Percent_4_Bucket_6: 1372
Critical_ROB_Stalls_Percent_5_Bucket_0: 1533297
Non-critical_ROB_Stalls_Percent_5_Bucket_0: 741060
Critical_ROB_Stalls_Percent_5_Bucket_1: 647815
Non-critical_ROB_Stalls_Percent_5_Bucket_1: 80390
Critical_ROB_Stalls_Percent_5_Bucket_2: 253268
Non-critical_ROB_Stalls_Percent_5_Bucket_2: 21556
Critical_ROB_Stalls_Percent_5_Bucket_3: 76403
Non-critical_ROB_Stalls_Percent_5_Bucket_3: 3502
Critical_ROB_Stalls_Percent_5_Bucket_4: 18316
Non-critical_ROB_Stalls_Percent_5_Bucket_4: 1266
Critical_ROB_Stalls_Percent_5_Bucket_5: 8366
Non-critical_ROB_Stalls_Percent_5_Bucket_5: 1022
Critical_ROB_Stalls_Percent_5_Bucket_6: 14280
Non-critical_ROB_Stalls_Percent_5_Bucket_6: 1341
Critical_ROB_Stalls_Percent_6_Bucket_0: 1676885
Non-critical_ROB_Stalls_Percent_6_Bucket_0: 597472
Critical_ROB_Stalls_Percent_6_Bucket_1: 666934
Non-critical_ROB_Stalls_Percent_6_Bucket_1: 61271
Critical_ROB_Stalls_Percent_6_Bucket_2: 260022
Non-critical_ROB_Stalls_Percent_6_Bucket_2: 14802
Critical_ROB_Stalls_Percent_6_Bucket_3: 76689
Non-critical_ROB_Stalls_Percent_6_Bucket_3: 3216
Critical_ROB_Stalls_Percent_6_Bucket_4: 18398
Non-critical_ROB_Stalls_Percent_6_Bucket_4: 1184
Critical_ROB_Stalls_Percent_6_Bucket_5: 8391
Non-critical_ROB_Stalls_Percent_6_Bucket_5: 997
Critical_ROB_Stalls_Percent_6_Bucket_6: 14309
Non-critical_ROB_Stalls_Percent_6_Bucket_6: 1312
Critical_ROB_Stalls_Percent_7_Bucket_0: 1822489
Non-critical_ROB_Stalls_Percent_7_Bucket_0: 451868
Critical_ROB_Stalls_Percent_7_Bucket_1: 685671
Non-critical_ROB_Stalls_Percent_7_Bucket_1: 42534
Critical_ROB_Stalls_Percent_7_Bucket_2: 264134
Non-critical_ROB_Stalls_Percent_7_Bucket_2: 10690
Critical_ROB_Stalls_Percent_7_Bucket_3: 77542
Non-critical_ROB_Stalls_Percent_7_Bucket_3: 2363
Critical_ROB_Stalls_Percent_7_Bucket_4: 18586
Non-critical_ROB_Stalls_Percent_7_Bucket_4: 996
Critical_ROB_Stalls_Percent_7_Bucket_5: 8690
Non-critical_ROB_Stalls_Percent_7_Bucket_5: 698
Critical_ROB_Stalls_Percent_7_Bucket_6: 14674
Non-critical_ROB_Stalls_Percent_7_Bucket_6: 947
Critical_ROB_Stalls_Percent_8_Bucket_0: 1974565
Non-critical_ROB_Stalls_Percent_8_Bucket_0: 299792
Critical_ROB_Stalls_Percent_8_Bucket_1: 699561
Non-critical_ROB_Stalls_Percent_8_Bucket_1: 28644
Critical_ROB_Stalls_Percent_8_Bucket_2: 267371
Non-critical_ROB_Stalls_Percent_8_Bucket_2: 7453
Critical_ROB_Stalls_Percent_8_Bucket_3: 78017
Non-critical_ROB_Stalls_Percent_8_Bucket_3: 1888
Critical_ROB_Stalls_Percent_8_Bucket_4: 18765
Non-critical_ROB_Stalls_Percent_8_Bucket_4: 817
Critical_ROB_Stalls_Percent_8_Bucket_5: 8783
Non-critical_ROB_Stalls_Percent_8_Bucket_5: 605
Critical_ROB_Stalls_Percent_8_Bucket_6: 14796
Non-critical_ROB_Stalls_Percent_8_Bucket_6: 825
Average ROB occupancy Load Stall Begin: 39.8962
Average ROB occupancy Load Stall End: 48.186
Min ROB occupancy Load Stall Begin: 1
Max ROB occupancy Load Stall Begin: 352
Min ROB occupancy Load Stall End: 1
Max ROB occupancy Load Stall End: 352
Average ROB occupancy Critical Load Stall Begin: 101.592
Average ROB occupancy Critical Load Stall End: 114.595
Min ROB occupancy Critical Load Stall Begin: 2
Max ROB occupancy Critical Load Stall Begin: 352
Min ROB occupancy Critical Load Stall End: 4
Max ROB occupancy Critical Load Stall End: 352
 ROB Load Stall Begin Bucket Count 0: 2512242
 ROB Load Stall End Bucket Count 0: 2274357
 ROB Critical Load Stall Begin Bucket Count 0: 40236
 ROB Critical Load Stall End Bucket Count 0: 24168
 ROB Load Stall Begin Bucket Count 1: 588793
 ROB Load Stall End Bucket Count 1: 728205
 ROB Critical Load Stall Begin Bucket Count 1: 98514
 ROB Critical Load Stall End Bucket Count 1: 91468
 ROB Load Stall Begin Bucket Count 2: 205127
 ROB Load Stall End Bucket Count 2: 274824
 ROB Critical Load Stall Begin Bucket Count 2: 39994
 ROB Critical Load Stall End Bucket Count 2: 57510
 ROB Load Stall Begin Bucket Count 3: 57069
 ROB Load Stall End Bucket Count 3: 79905
 ROB Critical Load Stall Begin Bucket Count 3: 9246
 ROB Critical Load Stall End Bucket Count 3: 13924
 ROB Load Stall Begin Bucket Count 4: 15821
 ROB Load Stall End Bucket Count 4: 19582
 ROB Critical Load Stall Begin Bucket Count 4: 4497
 ROB Critical Load Stall End Bucket Count 4: 5010
 ROB Load Stall Begin Bucket Count 5: 8560
 ROB Load Stall End Bucket Count 5: 9388
 ROB Critical Load Stall Begin Bucket Count 5: 3985
 ROB Critical Load Stall End Bucket Count 5: 4010
 ROB Load Stall Begin Bucket Count 6: 14270
 ROB Load Stall End Bucket Count 6: 15621
 ROB Critical Load Stall Begin Bucket Count 6: 11849
 ROB Critical Load Stall End Bucket Count 6: 12231
PIST Tag Read Accesses: 2350964
PIST Read Accesses: 1175482
PIST Tag Write Accesses: 2350964
PIST Write Accesses: 1175482
Criticality detector called times: 3193561
Max global_stall_cycles_count: 2561735
Threshold Modified: 1 times, factor: -1
Sturdy critical IP cache stats: 
 Unused entries: 0
CIC Tag Read Accesses: 0
CIC Read Accesses: 0
CIC Tag Write Accesses: 0
CIC Write Accesses: 0
Wobbly critical IP cache stats: 
 Unused entries: 114
CIC Tag Read Accesses: 85351136
CIC Read Accesses: 0
CIC Tag Write Accesses: 13925
CIC Write Accesses: 0
ITLB TOTAL     ACCESS:    9976551  HIT:    9379994  MISS:     596557  HIT %:    94.0204  MISS %:    5.97959   MPKI: 11.9311
ITLB LOAD TRANSLATION ACCESS:    8168716  HIT:    8091353  MISS:      77363  HIT %:    99.0529  MISS %:   0.947064   MPKI: 1.54726
ITLB TRANSLATION FROM L1D PREFETCHER ACCESS:    1807835  HIT:    1288641  MISS:     519194  HIT %:    71.2809  MISS %:    28.7191   MPKI: 10.3839
ITLB PREFETCH  REQUESTED:          0  ISSUED:          0  USEFUL:     415762  USELESS:     103438
ITLB USEFUL LOAD PREFETCHES:     415762 PREFETCH ISSUED TO LOWER LEVEL:          0  ACCURACY: inf
ITLB TIMELY PREFETCHES:     415762 LATE PREFETCHES: 231 DROPPED PREFETCHES: 3278
ITLB PREFETCHES SAME FILL-ORIGIN LEVEL: 0 DIFFERENT FILL-ORIGIN LEVEL: 0
ITLB AVERAGE MISS LATENCY: 21508.9 cycles
ITLB RQ	ACCESS:   14648782	FORWARD:          0	MERGED:    4629823	TO_CACHE:   10018959

DTLB TOTAL     ACCESS:   11440107  HIT:   10988014  MISS:     452093  HIT %:    96.0482  MISS %:    3.95182   MPKI: 9.04186
DTLB LOAD TRANSLATION ACCESS:   11440107  HIT:   10988014  MISS:     452093  HIT %:    96.0482  MISS %:    3.95182   MPKI: 9.04186
DTLB PREFETCH  REQUESTED:          0  ISSUED:          0  USEFUL:          0  USELESS:          0
DTLB USEFUL LOAD PREFETCHES:          0 PREFETCH ISSUED TO LOWER LEVEL:          0  ACCURACY: -nan
DTLB TIMELY PREFETCHES:          0 LATE PREFETCHES: 0 DROPPED PREFETCHES: 0
DTLB PREFETCHES SAME FILL-ORIGIN LEVEL: 0 DIFFERENT FILL-ORIGIN LEVEL: 0
DTLB AVERAGE MISS LATENCY: 9.3067 cycles
DTLB RQ	ACCESS:   14982306	FORWARD:          0	MERGED:    3518827	TO_CACHE:   11463479

STLB TOTAL     ACCESS:    1067031  HIT:    1064829  MISS:       2202  HIT %:    99.7936  MISS %:   0.206367   MPKI: 0.04404
STLB LOAD TRANSLATION ACCESS:     529225  HIT:     527344  MISS:       1881  HIT %:    99.6446  MISS %:   0.355425   MPKI: 0.03762
STLB TRANSLATION FROM L1D PREFETCHER ACCESS:     537806  HIT:     537485  MISS:        321  HIT %:    99.9403  MISS %:   0.059687   MPKI: 0.00642
STLB PREFETCH  REQUESTED:          0  ISSUED:          0  USEFUL:        282  USELESS:         39
STLB USEFUL LOAD PREFETCHES:        282 PREFETCH ISSUED TO LOWER LEVEL:          0  ACCURACY: inf
STLB TIMELY PREFETCHES:        282 LATE PREFETCHES: 0 DROPPED PREFETCHES: 3278
STLB PREFETCHES SAME FILL-ORIGIN LEVEL: 0 DIFFERENT FILL-ORIGIN LEVEL: 0
STLB AVERAGE MISS LATENCY: 70.7525 cycles
STLB RQ	ACCESS:    1075114	FORWARD:          0	MERGED:       4805	TO_CACHE:    1070309

STLB Hit, L1D data hit: 0
STLB Hit, L2C data hit: 0
STLB Hit, LLC data hit: 0
STLB Hit, LLC data miss: 0
STLB STLB hints to L2: 0
L1D TOTAL     ACCESS:   14569080  HIT:   13662505  MISS:     906575  HIT %:    93.7774  MISS %:     6.2226   MPKI: 18.1315
L1D LOAD      ACCESS:    8072615  HIT:    7425641  MISS:     646974  HIT %:    91.9856  MISS %:    8.01443   MPKI: 12.9395
L1D RFO       ACCESS:    6475985  HIT:    6224101  MISS:     251884  HIT %:    96.1105  MISS %:    3.88951   MPKI: 5.03768
L1D PREFETCH  ACCESS:      20480  HIT:      12763  MISS:       7717  HIT %:    62.3193  MISS %:    37.6807   MPKI: 0.15434
L1D PREFETCH  REQUESTED:      46376  ISSUED:      46376  USEFUL:       3540  USELESS:       4177
L1D USEFUL LOAD PREFETCHES:       3540 PREFETCH ISSUED TO LOWER LEVEL:       9277  ACCURACY: 38.1589
L1D TIMELY PREFETCHES:       3540 LATE PREFETCHES: 1555 DROPPED PREFETCHES: 0
L1D PREFETCHES SAME FILL-ORIGIN LEVEL: 9277 DIFFERENT FILL-ORIGIN LEVEL: 0
L1D AVERAGE MISS LATENCY: 71056.8 cycles
L1D RQ	ACCESS:   11582578	FORWARD:          0	MERGED:    3332131	TO_CACHE:    8097173
L1D WQ	ACCESS:    6957599	FORWARD:     153278	MERGED:      72466	TO_CACHE:    6885133
L1D PQ	ACCESS:      23190	FORWARD:          0	MERGED:          0	TO_CACHE:      23186

L1D UNIQUE REGIONS ACCESSED: 0
L1D REGIONS CONFLICTS: 0
L1D Cross Page Prefetch Requests: 0
L1D Same Page Prefetch Requests: 23898
L1D ROI Sum of L1D PQ occupancy: 314882
L1D PREFETCHES PUSHED FROM L2C: 0
L1I TOTAL     ACCESS:   14523424  HIT:   10860157  MISS:    3663267  HIT %:    74.7768  MISS %:    25.2232   MPKI: 73.2653
L1I LOAD      ACCESS:    9572752  HIT:    9342769  MISS:     229983  HIT %:    97.5975  MISS %:    2.40248   MPKI: 4.59966
L1I PREFETCH  ACCESS:    4950672  HIT:    1517388  MISS:    3433284  HIT %:    30.6501  MISS %:    69.3499   MPKI: 68.6657
L1I PREFETCH  REQUESTED:    5177251  ISSUED:    5167339  USEFUL:    2317923  USELESS:    1115399
L1I USEFUL LOAD PREFETCHES:    2317923 PREFETCH ISSUED TO LOWER LEVEL:    3457911  ACCURACY: 67.0325
L1I TIMELY PREFETCHES:    2317923 LATE PREFETCHES: 24627 DROPPED PREFETCHES: 8475
L1I PREFETCHES SAME FILL-ORIGIN LEVEL: 3457911 DIFFERENT FILL-ORIGIN LEVEL: 0
L1I AVERAGE MISS LATENCY: 337272 cycles
L1I RQ	ACCESS:   13674928	FORWARD:          0	MERGED:    4081222	TO_CACHE:    9593706
L1I PQ	ACCESS:    5167339	FORWARD:          0	MERGED:     112263	TO_CACHE:    5055076

BTB TOTAL     ACCESS:    6187548  HIT:    4393594  MISS:    1793954  HIT %:     71.007  MISS %:     28.993   MPKI: 35.8791
BTB BRANCH_DIRECT_JUMP	ACCESS:     531697  HIT:     378294  MISS:     153403
BTB BRANCH_INDIRECT	ACCESS:     199023  HIT:     166589  MISS:      32434
BTB BRANCH_CONDITIONAL	ACCESS:    3068015  HIT:    2579394  MISS:     488621
BTB BRANCH_DIRECT_CALL	ACCESS:    1010905  HIT:     656135  MISS:     354770
BTB BRANCH_INDIRECT_CALL	ACCESS:     183501  HIT:     115238  MISS:      68263
BTB BRANCH_RETURN	ACCESS:    1194407  HIT:     497944  MISS:     696463
BTB BRANCH_OTHER ACCESS:          0  HIT:          0  MISS:          0

L2C TOTAL     ACCESS:    5026602  HIT:    4571197  MISS:     455405  HIT %:    90.9401  MISS %:     9.0599   MPKI: 9.1081
L2C LOAD      ACCESS:     850742  HIT:     718695  MISS:     132047  HIT %:    84.4786  MISS %:    15.5214   MPKI: 2.64094
L2C DATA LOAD MPKI: 2.07582
L2C INSTRUCTION LOAD MPKI: 0.56512
L2C RFO       ACCESS:     251878  HIT:     198210  MISS:      53668  HIT %:    78.6929  MISS %:    21.3071   MPKI: 1.07336
L2C PREFETCH  ACCESS:    3467188  HIT:    3221245  MISS:     245943  HIT %:    92.9066  MISS %:    7.09344   MPKI: 4.91886
L2C DATA PREFETCH MPKI: 0.11666
L2C INSTRUCTION PREFETCH MPKI: 4.8022
L2C WRITEBACK ACCESS:     450797  HIT:     428884  MISS:      21913  HIT %:    95.1391  MISS %:    4.86095   MPKI: 0.43826
L2C LOAD TRANSLATION ACCESS:       2024  HIT:        550  MISS:       1474  HIT %:    27.1739  MISS %:    72.8261   MPKI: 0.02948
L2C TRANSLATION FROM L1D PREFETCHER ACCESS:       3973  HIT:       3613  MISS:        360  HIT %:    90.9388  MISS %:    9.06116   MPKI: 0.0072
L2C PREFETCH  REQUESTED:          0  ISSUED:          0  USEFUL:       4829  USELESS:     241710
L2C USEFUL LOAD PREFETCHES:       4829 PREFETCH ISSUED TO LOWER LEVEL:     245943  ACCURACY: 1.96346
L2C TIMELY PREFETCHES:       4829 LATE PREFETCHES: 0 DROPPED PREFETCHES: 0
L2C PREFETCHES SAME FILL-ORIGIN LEVEL: 0 DIFFERENT FILL-ORIGIN LEVEL: 0
L2C AVERAGE MISS LATENCY: 36.1832 cycles
L2C RQ	ACCESS:    1108651	FORWARD:          0	MERGED:          0	TO_CACHE:    1108617
L2C WQ	ACCESS:     450797	FORWARD:         34	MERGED:          0	TO_CACHE:     450797
L2C PQ	ACCESS:    3467188	FORWARD:          0	MERGED:          0	TO_CACHE:    3467188

L2C Instructions Evicting Data 104074
L2C Translations Evicting Data 1059
L2C Data Evicting Data 72138
L2C Instructions Evicting Instructions 163579
L2C Translations Evicting Instructions 752
L2C Data Evicting Instructions 90139
L2C Instructions Evicting Translations 713
L2C Translations Evicting Translations 23
L2C Data Evicting Translations 1015
L2C Dense regions hint from L2: 0
PSCL5 TOTAL     ACCESS:       5480  HIT:       5480  MISS:          0  HIT %:        100  MISS %:          0   MPKI: 0
PSCL5 LOAD TRANSLATION ACCESS:       1881  HIT:       1881  MISS:          0  HIT %:        100  MISS %:          0   MPKI: 0
PSCL5 TRANSLATION FROM L1D PREFETCHER ACCESS:       3599  HIT:       3599  MISS:          0  HIT %:        100  MISS %:          0   MPKI: 0
PSCL5 PREFETCH  REQUESTED:          0  ISSUED:          0  USEFUL:          0  USELESS:          0
PSCL5 USEFUL LOAD PREFETCHES:          0 PREFETCH ISSUED TO LOWER LEVEL:          0  ACCURACY: -nan
PSCL5 TIMELY PREFETCHES:          0 LATE PREFETCHES: 0 DROPPED PREFETCHES: 0
PSCL5 PREFETCHES SAME FILL-ORIGIN LEVEL: 0 DIFFERENT FILL-ORIGIN LEVEL: 0

PSCL4 TOTAL     ACCESS:       4537  HIT:       4520  MISS:         17  HIT %:    99.6253  MISS %:   0.374697   MPKI: 0.00034
PSCL4 LOAD TRANSLATION ACCESS:       1550  HIT:       1533  MISS:         17  HIT %:    98.9032  MISS %:    1.09677   MPKI: 0.00034
PSCL4 TRANSLATION FROM L1D PREFETCHER ACCESS:       2987  HIT:       2987  MISS:          0  HIT %:        100  MISS %:          0   MPKI: 0
PSCL4 PREFETCH  REQUESTED:          0  ISSUED:          0  USEFUL:          0  USELESS:          0
PSCL4 USEFUL LOAD PREFETCHES:          0 PREFETCH ISSUED TO LOWER LEVEL:          0  ACCURACY: -nan
PSCL4 TIMELY PREFETCHES:          0 LATE PREFETCHES: 0 DROPPED PREFETCHES: 0
PSCL4 PREFETCHES SAME FILL-ORIGIN LEVEL: 0 DIFFERENT FILL-ORIGIN LEVEL: 0

PSCL3 TOTAL     ACCESS:       5233  HIT:       5207  MISS:         26  HIT %:    99.5032  MISS %:   0.496847   MPKI: 0.00052
PSCL3 LOAD TRANSLATION ACCESS:       1804  HIT:       1778  MISS:         26  HIT %:    98.5588  MISS %:    1.44124   MPKI: 0.00052
PSCL3 TRANSLATION FROM L1D PREFETCHER ACCESS:       3429  HIT:       3429  MISS:          0  HIT %:        100  MISS %:          0   MPKI: 0
PSCL3 PREFETCH  REQUESTED:          0  ISSUED:          0  USEFUL:          0  USELESS:          0
PSCL3 USEFUL LOAD PREFETCHES:          0 PREFETCH ISSUED TO LOWER LEVEL:          0  ACCURACY: -nan
PSCL3 TIMELY PREFETCHES:          0 LATE PREFETCHES: 0 DROPPED PREFETCHES: 0
PSCL3 PREFETCHES SAME FILL-ORIGIN LEVEL: 0 DIFFERENT FILL-ORIGIN LEVEL: 0

PSCL2 TOTAL     ACCESS:       5190  HIT:       5053  MISS:        137  HIT %:    97.3603  MISS %:    2.63969   MPKI: 0.00274
PSCL2 LOAD TRANSLATION ACCESS:       1907  HIT:       1770  MISS:        137  HIT %:    92.8159  MISS %:    7.18406   MPKI: 0.00274
PSCL2 TRANSLATION FROM L1D PREFETCHER ACCESS:       3283  HIT:       3283  MISS:          0  HIT %:        100  MISS %:          0   MPKI: 0
PSCL2 PREFETCH  REQUESTED:          0  ISSUED:          0  USEFUL:          0  USELESS:          0
PSCL2 USEFUL LOAD PREFETCHES:          0 PREFETCH ISSUED TO LOWER LEVEL:          0  ACCURACY: -nan
PSCL2 TIMELY PREFETCHES:          0 LATE PREFETCHES: 0 DROPPED PREFETCHES: 0
PSCL2 PREFETCHES SAME FILL-ORIGIN LEVEL: 0 DIFFERENT FILL-ORIGIN LEVEL: 0

LLC TOTAL     ACCESS:     508278  HIT:     486087  MISS:      22191  HIT %:    95.6341  MISS %:    4.36592   MPKI: 0.44382
LLC LOAD      ACCESS:     132046  HIT:     123790  MISS:       8256  HIT %:    93.7476  MISS %:    6.25237   MPKI: 0.16512
LLC RFO       ACCESS:      53667  HIT:      42430  MISS:      11237  HIT %:    79.0616  MISS %:    20.9384   MPKI: 0.22474
LLC PREFETCH  ACCESS:     245943  HIT:     243624  MISS:       2319  HIT %:    99.0571  MISS %:   0.942901   MPKI: 0.04638
LLC WRITEBACK ACCESS:      74788  HIT:      74522  MISS:        266  HIT %:    99.6443  MISS %:   0.355672   MPKI: 0.00532
LLC LOAD TRANSLATION ACCESS:       1474  HIT:       1371  MISS:        103  HIT %:    93.0122  MISS %:    6.98779   MPKI: 0.00206
LLC TRANSLATION FROM L1D PREFETCHER ACCESS:        360  HIT:        350  MISS:         10  HIT %:    97.2222  MISS %:    2.77778   MPKI: 0.0002
LLC PREFETCH  REQUESTED:          0  ISSUED:          0  USEFUL:        191  USELESS:       1114
LLC USEFUL LOAD PREFETCHES:        191 PREFETCH ISSUED TO LOWER LEVEL:       2319  ACCURACY: 8.23631
LLC TIMELY PREFETCHES:        191 LATE PREFETCHES: 0 DROPPED PREFETCHES: 0
LLC PREFETCHES SAME FILL-ORIGIN LEVEL: 0 DIFFERENT FILL-ORIGIN LEVEL: 0
LLC AVERAGE MISS LATENCY: 155.114 cycles
LLC RQ	ACCESS:     187549	FORWARD:          0	MERGED:          0	TO_CACHE:     187547
LLC WQ	ACCESS:      74788	FORWARD:          2	MERGED:          0	TO_CACHE:      74788
LLC PQ	ACCESS:     245943	FORWARD:          0	MERGED:          0	TO_CACHE:     245943

LLC Dense regions hint to LLC: 0

RAW hits: 1158067
Loads Generated: 12740644
Loads sent to L1D: 11582578
Stores Generated: 6957596
Stores sent to L1D: 6957599
Major fault: 0 Minor fault: 2563
Allocated PAGES: 2563
I-Shadow cache 408 bytes
Touched + WorthPF tables 6144 bytes 
MMA filter 174 bytes 
FNL filter 272 bytes 
TOTAL PREFETCHER STORAGE SIZE: 25174 bytes
CPU 0 L1I next line prefetcher final stats

stream: 
stream:times selected: 122661
stream:pref_filled: 3023
stream:pref_useful: 667
stream:pref_late: 618
stream:misses: 172
stream:misses_by_poll: 0

CS: 
CS:times selected: 10743
CS:pref_filled: 3912
CS:pref_useful: 2802
CS:pref_late: 845
CS:misses: 1682
CS:misses_by_poll: 14

CPLX: 
CPLX:times selected: 111564
CPLX:pref_filled: 1214
CPLX:pref_useful: 167
CPLX:pref_late: 31
CPLX:misses: 1767
CPLX:misses_by_poll: 0

NL_L1: 
NL:times selected: 897
NL:pref_filled: 12
NL:pref_useful: 3
NL:pref_late: 1
NL:misses: 5
NL:misses_by_poll: 0

total selections: 245865
total_filled: 7717
total_useful: 3540
total_late: 1581
total_polluted: 14
total_misses_after_warmup: 32756
conflicts: 136936
Degree Incremented Times: 0
Degree Decremented Times: 3259

L1 IP Table Write Accesses: 413358
L1 IP Table Read Accesses: 276422
L1 RST Write Accesses: 122198
L1 RST Read Accesses: 244396
L1 CSPT Write Accesses: 122198
L1 CSPT Read Accesses: 236079
L1 RR Filter Tag Write Accesses: 23190
L1 RR Filter Tag Read Accesses: 5630046
L1 IP Table Tag Write Accesses: 572539
L1 IP Table Tag Read Accesses: 572539
L1 RST Tag Write Accesses: 0
L1 RST Tag Read Accesses: 1008793
L1 RR Filter Write Accesses: 0
L1 RR Filter Read Accesses: 226778
test: 20762

DRAM Statistics
 CHANNEL 0
 RQ ROW_BUFFER_HIT:       7839  ROW_BUFFER_MISS:      14083
 DBUS_CONGESTED:          1
 WQ ROW_BUFFER_HIT:       1142  ROW_BUFFER_MISS:       9820  FULL:          0

 AVG_CONGESTED_CYCLE: 1
 All warmup complete: 2
Channel 0 Bank busy for read cycles: 0
Channel 0 Bank busy for write cycles: 0
Channel 0
Rank 0
0banks busy for read cycles: 75832653
0banks busy for write cycles: 2791
1banks busy for read cycles: 1125950
1banks busy for write cycles: 391540
2banks busy for read cycles: 126904
2banks busy for write cycles: 125174
3banks busy for read cycles: 56010
3banks busy for write cycles: 87548
4banks busy for read cycles: 27261
4banks busy for write cycles: 65447
5banks busy for read cycles: 21189
5banks busy for write cycles: 57014
6banks busy for read cycles: 21821
6banks busy for write cycles: 50244
7banks busy for read cycles: 25119
7banks busy for write cycles: 47258
8banks busy for read cycles: 55635
8banks busy for write cycles: 81449

CPU 0 Branch Prediction Accuracy: 99.8142% MPKI: 0.34676 Average ROB Occupancy at Mispredict: 70.1115
Branch types
NOT_BRANCH: 40668669 81.3373%
BRANCH_DIRECT_JUMP: 531697 1.06339%
BRANCH_INDIRECT: 199023 0.398046%
BRANCH_CONDITIONAL: 6211452 12.4229%
BRANCH_DIRECT_CALL: 1010905 2.02181%
BRANCH_INDIRECT_CALL: 183501 0.367002%
BRANCH_RETURN: 1194407 2.38881%
BRANCH_OTHER: 0 0%

DRAM PAGES: 1048576
Allocated PAGES: 2563
