Initialize SIGNATURE TABLE
ST_SET: 1
ST_WAY: 16
ST_TAG_BIT: 16
ST_TAG_MASK: ffff

Initialize PATTERN TABLE
PT_SET: 16
PT_WAY: 4
SIG_DELTA_BIT: 7
C_SIG_BIT: 4
C_DELTA_BIT: 4

Initialize PREFETCH FILTER
FILTER_SET: 1024

Initialize PERCEPTRON
PERC_ENTRIES: 4096
PERC_FEATURES: 9

*** ChampSim Multicore Out-of-Order Simulator ***

Warmup Instructions: 50000000
Simulation Instructions: 50000000
Number of CPUs: 1
LLC sets: 2048
LLC ways: 16
Off-chip DRAM Size: 4096 MB Channels: 1 Width: 64-bit Data Rate: 6400 MT/s
CPU 0 runs ../IPC-traces//server_011.champsimtrace.xz
.xz
BTB has LRU replacement policy
ITLB has LRU replacement policy
DTLB has LRU replacement policy
STLB has LRU replacement policy
CPU 0 L1I next line prefetcher
L1I has LRU replacement policy
L1D has LRU replacement policy
Initialize SRRIP state for L2C
Initialize DRRIP state for LLC
Heartbeat CPU 0 instructions: 10000002 cycles: 2770178 heartbeat IPC: 3.60988 cumulative IPC: 3.60988 (Simulation time: 0 hr 4 min 16 sec) 
Heartbeat CPU 0 instructions: 20000002 cycles: 5537856 heartbeat IPC: 3.61314 cumulative IPC: 3.61151 (Simulation time: 0 hr 7 min 33 sec) 
Heartbeat CPU 0 instructions: 30000001 cycles: 8324107 heartbeat IPC: 3.58905 cumulative IPC: 3.60399 (Simulation time: 0 hr 10 min 35 sec) 
Heartbeat CPU 0 instructions: 40000003 cycles: 11088080 heartbeat IPC: 3.61798 cumulative IPC: 3.60748 (Simulation time: 0 hr 14 min 10 sec) 
Heartbeat CPU 0 instructions: 50000002 cycles: 13854467 heartbeat IPC: 3.61482 cumulative IPC: 3.60894 (Simulation time: 0 hr 17 min 28 sec) 

Warmup complete CPU 0 instructions: 50000002 cycles: 13854467 (Simulation time: 0 hr 17 min 28 sec) 

Heartbeat CPU 0 instructions: 60000002 cycles: 28366479 heartbeat IPC: 0.689084 cumulative IPC: 0.689084 (Simulation time: 0 hr 21 min 8 sec) 
Heartbeat CPU 0 instructions: 70000001 cycles: 43693619 heartbeat IPC: 0.652437 cumulative IPC: 0.67026 (Simulation time: 0 hr 24 min 32 sec) 
Heartbeat CPU 0 instructions: 80000001 cycles: 60796483 heartbeat IPC: 0.584697 cumulative IPC: 0.639086 (Simulation time: 0 hr 27 min 47 sec) 
Heartbeat CPU 0 instructions: 90000001 cycles: 75702090 heartbeat IPC: 0.670888 cumulative IPC: 0.646751 (Simulation time: 0 hr 31 min 6 sec) 
Heartbeat CPU 0 instructions: 100000000 cycles: 90223298 heartbeat IPC: 0.688648 cumulative IPC: 0.654717 (Simulation time: 0 hr 34 min 16 sec) 
Finished CPU 0 instructions: 50000000 cycles: 76368846 cumulative IPC: 0.654717 (Simulation time: 0 hr 34 min 16 sec) 

ChampSim completed all CPUs

Region of Interest Statistics

CPU 0 cumulative IPC: 0.654717 instructions: 50000000 cycles: 76368846

CPU 0 Average Load ROB stall cycles: 2.02323e+07
CPU 0 Fraction of times ROB stalled by Loads: 38.9484
CPU 0 Percentage of Load stall cycles in Total stall cycles: 2.38545e+08
Issued all: 27735979
Issued LT all: 21678479
rob_not_full_when_issued_lt_all: 20758724
Issued LT one: 17171708
rob_not_full_when_issued_lt_one: 16351886
 Total stall cycles: 62091936
 Total load stall cycles: 148117494634615
Unique Load IPs: 66263
CPU 0 NUM of IPS identified critical: 62
CPU 0 Num of Load IPs stalling ROB: 0
Threshold modification factor: 0
Trouble in retire width: -nan
MaC = Marked as critical.
lt_50_percent_before_Mac: 14
gt_90_percent_before_Mac: 9
gt_75_percent_before_Mac: 7
gt_50_percent_before_Mac: 14
stall_proportion_bin_same_before_after: 0
stall_proportion_bin_lower_before_after: 0
stall_proportion_bin_upper_before_after: 0
average_stall_proportion_before: 0.0301132
average_stall_proportion_after: 0.0328685
Critical_IP_Detector_Accuracy_70: 0
Critical_IP_Detector_Accuracy_80: 0
Critical_IP_Detector_Accuracy_90: 0
Critical_IP_Detector_Coverage_70: 0
Critical_IP_Detector_Coverage_80: 0
Critical_IP_Detector_Coverage_90: 0
stat_90_percent_critical_ip_stalls_freq: 28160
stat_90_percent_non_critical_ip_stalls_freq: 18446744073709523456
AVERAGE_ROB_Occupancy_90_Percent_Critical_IP_Stalls: 51.8572
AVERAGE_ROB_Occupancy_90_Percent_Non_Critical_IP_Stalls: 9.43009e-12
Critical_IP_ROB_Stalls_Bucket_0: 4419
Non-critical_IP_ROB_Stalls_Bucket_0: 1610830
Critical_IP_ROB_Stalls_Bucket_1: 2448
Non-critical_IP_ROB_Stalls_Bucket_1: 761383
Critical_IP_ROB_Stalls_Bucket_2: 1033
Non-critical_IP_ROB_Stalls_Bucket_2: 275979
Critical_IP_ROB_Stalls_Bucket_3: 488
Non-critical_IP_ROB_Stalls_Bucket_3: 87166
Critical_IP_ROB_Stalls_Bucket_4: 100
Non-critical_IP_ROB_Stalls_Bucket_4: 40536
Critical_IP_ROB_Stalls_Bucket_5: 143
Non-critical_IP_ROB_Stalls_Bucket_5: 21920
Critical_IP_ROB_Stalls_Bucket_6: 495
Non-critical_IP_ROB_Stalls_Bucket_6: 44409
0 => IPs accounting for >50 percent of stalls, 1 => 55, 2 => 60, 3 => 65 and so on till 90.
percent50: inf num IPs:  1
percent55: inf num IPs: 1
percent60: inf num IPs: 1
percent65: inf num IPs: 1
percent70: inf num IPs: 1
percent75: inf num IPs: 1
percent80: inf num IPs: 1
percent85: inf num IPs: 1
percent90: inf num IPs: 1
Critical_ROB_Stalls_Percent_0_Bucket_0: 22741
Non-critical_ROB_Stalls_Percent_0_Bucket_0: 1592508
Critical_ROB_Stalls_Percent_0_Bucket_1: 5382
Non-critical_ROB_Stalls_Percent_0_Bucket_1: 758449
Critical_ROB_Stalls_Percent_0_Bucket_2: 14
Non-critical_ROB_Stalls_Percent_0_Bucket_2: 276998
Critical_ROB_Stalls_Percent_0_Bucket_3: 8
Non-critical_ROB_Stalls_Percent_0_Bucket_3: 87646
Critical_ROB_Stalls_Percent_0_Bucket_4: 11
Non-critical_ROB_Stalls_Percent_0_Bucket_4: 40625
Critical_ROB_Stalls_Percent_0_Bucket_5: 4
Non-critical_ROB_Stalls_Percent_0_Bucket_5: 22059
Critical_ROB_Stalls_Percent_0_Bucket_6: 0
Non-critical_ROB_Stalls_Percent_0_Bucket_6: 44904
Critical_ROB_Stalls_Percent_1_Bucket_0: 22741
Non-critical_ROB_Stalls_Percent_1_Bucket_0: 1592508
Critical_ROB_Stalls_Percent_1_Bucket_1: 5382
Non-critical_ROB_Stalls_Percent_1_Bucket_1: 758449
Critical_ROB_Stalls_Percent_1_Bucket_2: 14
Non-critical_ROB_Stalls_Percent_1_Bucket_2: 276998
Critical_ROB_Stalls_Percent_1_Bucket_3: 8
Non-critical_ROB_Stalls_Percent_1_Bucket_3: 87646
Critical_ROB_Stalls_Percent_1_Bucket_4: 11
Non-critical_ROB_Stalls_Percent_1_Bucket_4: 40625
Critical_ROB_Stalls_Percent_1_Bucket_5: 4
Non-critical_ROB_Stalls_Percent_1_Bucket_5: 22059
Critical_ROB_Stalls_Percent_1_Bucket_6: 0
Non-critical_ROB_Stalls_Percent_1_Bucket_6: 44904
Critical_ROB_Stalls_Percent_2_Bucket_0: 22741
Non-critical_ROB_Stalls_Percent_2_Bucket_0: 1592508
Critical_ROB_Stalls_Percent_2_Bucket_1: 5382
Non-critical_ROB_Stalls_Percent_2_Bucket_1: 758449
Critical_ROB_Stalls_Percent_2_Bucket_2: 14
Non-critical_ROB_Stalls_Percent_2_Bucket_2: 276998
Critical_ROB_Stalls_Percent_2_Bucket_3: 8
Non-critical_ROB_Stalls_Percent_2_Bucket_3: 87646
Critical_ROB_Stalls_Percent_2_Bucket_4: 11
Non-critical_ROB_Stalls_Percent_2_Bucket_4: 40625
Critical_ROB_Stalls_Percent_2_Bucket_5: 4
Non-critical_ROB_Stalls_Percent_2_Bucket_5: 22059
Critical_ROB_Stalls_Percent_2_Bucket_6: 0
Non-critical_ROB_Stalls_Percent_2_Bucket_6: 44904
Critical_ROB_Stalls_Percent_3_Bucket_0: 22741
Non-critical_ROB_Stalls_Percent_3_Bucket_0: 1592508
Critical_ROB_Stalls_Percent_3_Bucket_1: 5382
Non-critical_ROB_Stalls_Percent_3_Bucket_1: 758449
Critical_ROB_Stalls_Percent_3_Bucket_2: 14
Non-critical_ROB_Stalls_Percent_3_Bucket_2: 276998
Critical_ROB_Stalls_Percent_3_Bucket_3: 8
Non-critical_ROB_Stalls_Percent_3_Bucket_3: 87646
Critical_ROB_Stalls_Percent_3_Bucket_4: 11
Non-critical_ROB_Stalls_Percent_3_Bucket_4: 40625
Critical_ROB_Stalls_Percent_3_Bucket_5: 4
Non-critical_ROB_Stalls_Percent_3_Bucket_5: 22059
Critical_ROB_Stalls_Percent_3_Bucket_6: 0
Non-critical_ROB_Stalls_Percent_3_Bucket_6: 44904
Critical_ROB_Stalls_Percent_4_Bucket_0: 22741
Non-critical_ROB_Stalls_Percent_4_Bucket_0: 1592508
Critical_ROB_Stalls_Percent_4_Bucket_1: 5382
Non-critical_ROB_Stalls_Percent_4_Bucket_1: 758449
Critical_ROB_Stalls_Percent_4_Bucket_2: 14
Non-critical_ROB_Stalls_Percent_4_Bucket_2: 276998
Critical_ROB_Stalls_Percent_4_Bucket_3: 8
Non-critical_ROB_Stalls_Percent_4_Bucket_3: 87646
Critical_ROB_Stalls_Percent_4_Bucket_4: 11
Non-critical_ROB_Stalls_Percent_4_Bucket_4: 40625
Critical_ROB_Stalls_Percent_4_Bucket_5: 4
Non-critical_ROB_Stalls_Percent_4_Bucket_5: 22059
Critical_ROB_Stalls_Percent_4_Bucket_6: 0
Non-critical_ROB_Stalls_Percent_4_Bucket_6: 44904
Critical_ROB_Stalls_Percent_5_Bucket_0: 22741
Non-critical_ROB_Stalls_Percent_5_Bucket_0: 1592508
Critical_ROB_Stalls_Percent_5_Bucket_1: 5382
Non-critical_ROB_Stalls_Percent_5_Bucket_1: 758449
Critical_ROB_Stalls_Percent_5_Bucket_2: 14
Non-critical_ROB_Stalls_Percent_5_Bucket_2: 276998
Critical_ROB_Stalls_Percent_5_Bucket_3: 8
Non-critical_ROB_Stalls_Percent_5_Bucket_3: 87646
Critical_ROB_Stalls_Percent_5_Bucket_4: 11
Non-critical_ROB_Stalls_Percent_5_Bucket_4: 40625
Critical_ROB_Stalls_Percent_5_Bucket_5: 4
Non-critical_ROB_Stalls_Percent_5_Bucket_5: 22059
Critical_ROB_Stalls_Percent_5_Bucket_6: 0
Non-critical_ROB_Stalls_Percent_5_Bucket_6: 44904
Critical_ROB_Stalls_Percent_6_Bucket_0: 22741
Non-critical_ROB_Stalls_Percent_6_Bucket_0: 1592508
Critical_ROB_Stalls_Percent_6_Bucket_1: 5382
Non-critical_ROB_Stalls_Percent_6_Bucket_1: 758449
Critical_ROB_Stalls_Percent_6_Bucket_2: 14
Non-critical_ROB_Stalls_Percent_6_Bucket_2: 276998
Critical_ROB_Stalls_Percent_6_Bucket_3: 8
Non-critical_ROB_Stalls_Percent_6_Bucket_3: 87646
Critical_ROB_Stalls_Percent_6_Bucket_4: 11
Non-critical_ROB_Stalls_Percent_6_Bucket_4: 40625
Critical_ROB_Stalls_Percent_6_Bucket_5: 4
Non-critical_ROB_Stalls_Percent_6_Bucket_5: 22059
Critical_ROB_Stalls_Percent_6_Bucket_6: 0
Non-critical_ROB_Stalls_Percent_6_Bucket_6: 44904
Critical_ROB_Stalls_Percent_7_Bucket_0: 22741
Non-critical_ROB_Stalls_Percent_7_Bucket_0: 1592508
Critical_ROB_Stalls_Percent_7_Bucket_1: 5382
Non-critical_ROB_Stalls_Percent_7_Bucket_1: 758449
Critical_ROB_Stalls_Percent_7_Bucket_2: 14
Non-critical_ROB_Stalls_Percent_7_Bucket_2: 276998
Critical_ROB_Stalls_Percent_7_Bucket_3: 8
Non-critical_ROB_Stalls_Percent_7_Bucket_3: 87646
Critical_ROB_Stalls_Percent_7_Bucket_4: 11
Non-critical_ROB_Stalls_Percent_7_Bucket_4: 40625
Critical_ROB_Stalls_Percent_7_Bucket_5: 4
Non-critical_ROB_Stalls_Percent_7_Bucket_5: 22059
Critical_ROB_Stalls_Percent_7_Bucket_6: 0
Non-critical_ROB_Stalls_Percent_7_Bucket_6: 44904
Critical_ROB_Stalls_Percent_8_Bucket_0: 22741
Non-critical_ROB_Stalls_Percent_8_Bucket_0: 1592508
Critical_ROB_Stalls_Percent_8_Bucket_1: 5382
Non-critical_ROB_Stalls_Percent_8_Bucket_1: 758449
Critical_ROB_Stalls_Percent_8_Bucket_2: 14
Non-critical_ROB_Stalls_Percent_8_Bucket_2: 276998
Critical_ROB_Stalls_Percent_8_Bucket_3: 8
Non-critical_ROB_Stalls_Percent_8_Bucket_3: 87646
Critical_ROB_Stalls_Percent_8_Bucket_4: 11
Non-critical_ROB_Stalls_Percent_8_Bucket_4: 40625
Critical_ROB_Stalls_Percent_8_Bucket_5: 4
Non-critical_ROB_Stalls_Percent_8_Bucket_5: 22059
Critical_ROB_Stalls_Percent_8_Bucket_6: 0
Non-critical_ROB_Stalls_Percent_8_Bucket_6: 44904
Average ROB occupancy Load Stall Begin: 50.8043
Average ROB occupancy Load Stall End: 61.5199
Min ROB occupancy Load Stall Begin: 1
Max ROB occupancy Load Stall Begin: 352
Min ROB occupancy Load Stall End: 1
Max ROB occupancy Load Stall End: 352
Average ROB occupancy Critical Load Stall Begin: 73.0461
Average ROB occupancy Critical Load Stall End: 86.1658
Min ROB occupancy Critical Load Stall Begin: 3
Max ROB occupancy Critical Load Stall Begin: 352
Min ROB occupancy Critical Load Stall End: 3
Max ROB occupancy Critical Load Stall End: 352
 ROB Load Stall Begin Bucket Count 0: 1909886
 ROB Load Stall End Bucket Count 0: 1615249
 ROB Critical Load Stall Begin Bucket Count 0: 1405
 ROB Critical Load Stall End Bucket Count 0: 1157
 ROB Load Stall Begin Bucket Count 1: 578856
 ROB Load Stall End Bucket Count 1: 763831
 ROB Critical Load Stall Begin Bucket Count 1: 386
 ROB Critical Load Stall End Bucket Count 1: 490
 ROB Load Stall Begin Bucket Count 2: 210226
 ROB Load Stall End Bucket Count 2: 277012
 ROB Critical Load Stall Begin Bucket Count 2: 193
 ROB Critical Load Stall End Bucket Count 2: 285
 ROB Load Stall Begin Bucket Count 3: 64106
 ROB Load Stall End Bucket Count 3: 87654
 ROB Critical Load Stall Begin Bucket Count 3: 64
 ROB Critical Load Stall End Bucket Count 3: 107
 ROB Load Stall Begin Bucket Count 4: 30969
 ROB Load Stall End Bucket Count 4: 40636
 ROB Critical Load Stall Begin Bucket Count 4: 21
 ROB Critical Load Stall End Bucket Count 4: 26
 ROB Load Stall Begin Bucket Count 5: 18930
 ROB Load Stall End Bucket Count 5: 22063
 ROB Critical Load Stall Begin Bucket Count 5: 45
 ROB Critical Load Stall End Bucket Count 5: 34
 ROB Load Stall Begin Bucket Count 6: 38376
 ROB Load Stall End Bucket Count 6: 44904
 ROB Critical Load Stall Begin Bucket Count 6: 166
 ROB Critical Load Stall End Bucket Count 6: 184
PIST Tag Read Accesses: 0
PIST Read Accesses: 0
PIST Tag Write Accesses: 0
PIST Write Accesses: 0
Criticality detector called times: 0
Max global_stall_cycles_count: 0
Threshold Modified: 0 times, factor: 0
Sturdy critical IP cache stats: 
 Unused entries: 0
CIC Tag Read Accesses: 0
CIC Read Accesses: 0
CIC Tag Write Accesses: 0
CIC Write Accesses: 0
Wobbly critical IP cache stats: 
 Unused entries: 0
CIC Tag Read Accesses: 129540487
CIC Read Accesses: 0
CIC Tag Write Accesses: 37884
CIC Write Accesses: 0
ITLB TOTAL     ACCESS:    9080944  HIT:    8857958  MISS:     222986  HIT %:    97.5445  MISS %:    2.45554   MPKI: 4.45972
ITLB LOAD TRANSLATION ACCESS:    7873598  HIT:    7797750  MISS:      75848  HIT %:    99.0367  MISS %:   0.963321   MPKI: 1.51696
ITLB TRANSLATION FROM L1D PREFETCHER ACCESS:    1207346  HIT:    1060208  MISS:     147138  HIT %:    87.8131  MISS %:    12.1869   MPKI: 2.94276
ITLB PREFETCH  REQUESTED:          0  ISSUED:          0  USEFUL:     116238  USELESS:      30908
ITLB USEFUL LOAD PREFETCHES:     116238 PREFETCH ISSUED TO LOWER LEVEL:          0  ACCURACY: inf
ITLB TIMELY PREFETCHES:     116238 LATE PREFETCHES: 958 DROPPED PREFETCHES: 5524
ITLB PREFETCHES SAME FILL-ORIGIN LEVEL: 0 DIFFERENT FILL-ORIGIN LEVEL: 0
ITLB AVERAGE MISS LATENCY: 227078 cycles
ITLB RQ	ACCESS:   12419302	FORWARD:          0	MERGED:    3301305	TO_CACHE:    9117997

DTLB TOTAL     ACCESS:    9678066  HIT:    9102730  MISS:     575336  HIT %:    94.0553  MISS %:    5.94474   MPKI: 11.5067
DTLB LOAD TRANSLATION ACCESS:    9678066  HIT:    9102730  MISS:     575336  HIT %:    94.0553  MISS %:    5.94474   MPKI: 11.5067
DTLB PREFETCH  REQUESTED:          0  ISSUED:          0  USEFUL:          0  USELESS:          0
DTLB USEFUL LOAD PREFETCHES:          0 PREFETCH ISSUED TO LOWER LEVEL:          0  ACCURACY: -nan
DTLB TIMELY PREFETCHES:          0 LATE PREFETCHES: 0 DROPPED PREFETCHES: 0
DTLB PREFETCHES SAME FILL-ORIGIN LEVEL: 0 DIFFERENT FILL-ORIGIN LEVEL: 0
DTLB AVERAGE MISS LATENCY: 15.3896 cycles
DTLB RQ	ACCESS:   12232379	FORWARD:          0	MERGED:    2517275	TO_CACHE:    9715104

STLB TOTAL     ACCESS:     798313  HIT:     695521  MISS:     102792  HIT %:    87.1238  MISS %:    12.8762   MPKI: 2.05584
STLB LOAD TRANSLATION ACCESS:     650227  HIT:     569562  MISS:      80665  HIT %:    87.5943  MISS %:    12.4057   MPKI: 1.6133
STLB TRANSLATION FROM L1D PREFETCHER ACCESS:     148086  HIT:     125959  MISS:      22127  HIT %:     85.058  MISS %:     14.942   MPKI: 0.44254
STLB PREFETCH  REQUESTED:          0  ISSUED:          0  USEFUL:      13311  USELESS:       8828
STLB USEFUL LOAD PREFETCHES:      13311 PREFETCH ISSUED TO LOWER LEVEL:          0  ACCURACY: inf
STLB TIMELY PREFETCHES:      13311 LATE PREFETCHES: 9 DROPPED PREFETCHES: 5525
STLB PREFETCHES SAME FILL-ORIGIN LEVEL: 0 DIFFERENT FILL-ORIGIN LEVEL: 0
STLB AVERAGE MISS LATENCY: 50.7922 cycles
STLB RQ	ACCESS:     803847	FORWARD:          0	MERGED:          0	TO_CACHE:     803847

STLB Hit, L1D data hit: 0
STLB Hit, L2C data hit: 0
STLB Hit, LLC data hit: 0
STLB Hit, LLC data miss: 0
STLB STLB hints to L2: 0
L1D TOTAL     ACCESS:   12060972  HIT:   11428321  MISS:     632651  HIT %:    94.7546  MISS %:    5.24544   MPKI: 12.653
L1D LOAD      ACCESS:    7228470  HIT:    6686994  MISS:     541476  HIT %:    92.5091  MISS %:    7.49088   MPKI: 10.8295
L1D RFO       ACCESS:    4832502  HIT:    4741327  MISS:      91175  HIT %:    98.1133  MISS %:     1.8867   MPKI: 1.8235
L1D PREFETCH  REQUESTED:          0  ISSUED:          0  USEFUL:          0  USELESS:          0
L1D USEFUL LOAD PREFETCHES:          0 PREFETCH ISSUED TO LOWER LEVEL:          0  ACCURACY: -nan
L1D TIMELY PREFETCHES:          0 LATE PREFETCHES: 0 DROPPED PREFETCHES: 0
L1D PREFETCHES SAME FILL-ORIGIN LEVEL: 0 DIFFERENT FILL-ORIGIN LEVEL: 0
L1D AVERAGE MISS LATENCY: 50.1928 cycles
L1D RQ	ACCESS:   11097208	FORWARD:          0	MERGED:    3746493	TO_CACHE:    7270249
L1D WQ	ACCESS:    5073610	FORWARD:      80466	MERGED:     111480	TO_CACHE:    4962130

L1D UNIQUE REGIONS ACCESSED: 0
L1D REGIONS CONFLICTS: 0
L1D Cross Page Prefetch Requests: 0
L1D Same Page Prefetch Requests: 0
L1D ROI Sum of L1D PQ occupancy: 0
L1D PREFETCHES PUSHED FROM L2C: 0
L1I TOTAL     ACCESS:   12259357  HIT:   10378064  MISS:    1881293  HIT %:    84.6542  MISS %:    15.3458   MPKI: 37.6259
L1I LOAD      ACCESS:    9555651  HIT:    9275733  MISS:     279918  HIT %:    97.0707  MISS %:    2.92935   MPKI: 5.59836
L1I PREFETCH  ACCESS:    2703706  HIT:    1102331  MISS:    1601375  HIT %:    40.7711  MISS %:    59.2289   MPKI: 32.0275
L1I PREFETCH  REQUESTED:    2939334  ISSUED:    2932276  USEFUL:    1039947  USELESS:     561427
L1I USEFUL LOAD PREFETCHES:    1039947 PREFETCH ISSUED TO LOWER LEVEL:    1635014  ACCURACY: 63.6048
L1I TIMELY PREFETCHES:    1039947 LATE PREFETCHES: 33639 DROPPED PREFETCHES: 18217
L1I PREFETCHES SAME FILL-ORIGIN LEVEL: 1635014 DIFFERENT FILL-ORIGIN LEVEL: 0
L1I AVERAGE MISS LATENCY: 937543 cycles
L1I RQ	ACCESS:   13825662	FORWARD:          0	MERGED:    4241560	TO_CACHE:    9584102
L1I PQ	ACCESS:    2932276	FORWARD:          0	MERGED:      97076	TO_CACHE:    2835200

BTB TOTAL     ACCESS:    5007119  HIT:    4225540  MISS:     781579  HIT %:    84.3906  MISS %:    15.6094   MPKI: 15.6316
BTB BRANCH_DIRECT_JUMP	ACCESS:     451601  HIT:     395730  MISS:      55871
BTB BRANCH_INDIRECT	ACCESS:     151580  HIT:     115440  MISS:      36140
BTB BRANCH_CONDITIONAL	ACCESS:    2656300  HIT:    2427735  MISS:     228565
BTB BRANCH_DIRECT_CALL	ACCESS:     647826  HIT:     542970  MISS:     104856
BTB BRANCH_INDIRECT_CALL	ACCESS:     211373  HIT:     173798  MISS:      37575
BTB BRANCH_RETURN	ACCESS:     888439  HIT:     569867  MISS:     318572
BTB BRANCH_OTHER ACCESS:          0  HIT:          0  MISS:          0

L2C TOTAL     ACCESS:    3266078  HIT:    2049107  MISS:    1216971  HIT %:    62.7391  MISS %:    37.2609   MPKI: 24.3394
L2C LOAD      ACCESS:     787744  HIT:     395653  MISS:     392091  HIT %:    50.2261  MISS %:    49.7739   MPKI: 7.84182
L2C DATA LOAD MPKI: 5.97914
L2C INSTRUCTION LOAD MPKI: 1.86268
L2C RFO       ACCESS:      91167  HIT:      39059  MISS:      52108  HIT %:    42.8434  MISS %:    57.1566   MPKI: 1.04216
L2C PREFETCH  ACCESS:    1997603  HIT:    1306059  MISS:     691544  HIT %:    65.3813  MISS %:    34.6187   MPKI: 13.8309
L2C DATA PREFETCH MPKI: 3.06248
L2C INSTRUCTION PREFETCH MPKI: 10.7684
L2C WRITEBACK ACCESS:     248975  HIT:     224240  MISS:      24735  HIT %:    90.0653  MISS %:    9.93473   MPKI: 0.4947
L2C LOAD TRANSLATION ACCESS:     105919  HIT:      58508  MISS:      47411  HIT %:    55.2384  MISS %:    44.7616   MPKI: 0.94822
L2C TRANSLATION FROM L1D PREFETCHER ACCESS:      34670  HIT:      25588  MISS:       9082  HIT %:    73.8044  MISS %:    26.1956   MPKI: 0.18164
L2C PREFETCH  REQUESTED:     693795  ISSUED:     693790  USEFUL:      27481  USELESS:     673221
L2C USEFUL LOAD PREFETCHES:      27481 PREFETCH ISSUED TO LOWER LEVEL:     699155  ACCURACY: 3.9306
L2C TIMELY PREFETCHES:      27481 LATE PREFETCHES: 660 DROPPED PREFETCHES: 0
L2C PREFETCHES SAME FILL-ORIGIN LEVEL: 172977 DIFFERENT FILL-ORIGIN LEVEL: 6951
L2C AVERAGE MISS LATENCY: 45.0895 cycles
L2C RQ	ACCESS:    1019519	FORWARD:          0	MERGED:          0	TO_CACHE:    1019500
L2C WQ	ACCESS:     248975	FORWARD:         19	MERGED:          0	TO_CACHE:     248975
L2C PQ	ACCESS:    2328804	FORWARD:          0	MERGED:     302908	TO_CACHE:    2025896

L2C Instructions Evicting Data 273678
L2C Translations Evicting Data 24690
L2C Data Evicting Data 220328
L2C Instructions Evicting Instructions 328968
L2C Translations Evicting Instructions 29026
L2C Data Evicting Instructions 260040
L2C Instructions Evicting Translations 28908
L2C Translations Evicting Translations 2777
L2C Data Evicting Translations 23821
L2C Dense regions hint from L2: 0
PSCL5 TOTAL     ACCESS:     108317  HIT:     108317  MISS:          0  HIT %:        100  MISS %:          0   MPKI: 0
PSCL5 LOAD TRANSLATION ACCESS:      80656  HIT:      80656  MISS:          0  HIT %:        100  MISS %:          0   MPKI: 0
PSCL5 TRANSLATION FROM L1D PREFETCHER ACCESS:      27661  HIT:      27661  MISS:          0  HIT %:        100  MISS %:          0   MPKI: 0
PSCL5 PREFETCH  REQUESTED:          0  ISSUED:          0  USEFUL:          0  USELESS:          0
PSCL5 USEFUL LOAD PREFETCHES:          0 PREFETCH ISSUED TO LOWER LEVEL:          0  ACCURACY: -nan
PSCL5 TIMELY PREFETCHES:          0 LATE PREFETCHES: 0 DROPPED PREFETCHES: 0
PSCL5 PREFETCHES SAME FILL-ORIGIN LEVEL: 0 DIFFERENT FILL-ORIGIN LEVEL: 0

PSCL4 TOTAL     ACCESS:     100936  HIT:     100647  MISS:        289  HIT %:    99.7137  MISS %:    0.28632   MPKI: 0.00578
PSCL4 LOAD TRANSLATION ACCESS:      75449  HIT:      75160  MISS:        289  HIT %:     99.617  MISS %:    0.38304   MPKI: 0.00578
PSCL4 TRANSLATION FROM L1D PREFETCHER ACCESS:      25487  HIT:      25487  MISS:          0  HIT %:        100  MISS %:          0   MPKI: 0
PSCL4 PREFETCH  REQUESTED:          0  ISSUED:          0  USEFUL:          0  USELESS:          0
PSCL4 USEFUL LOAD PREFETCHES:          0 PREFETCH ISSUED TO LOWER LEVEL:          0  ACCURACY: -nan
PSCL4 TIMELY PREFETCHES:          0 LATE PREFETCHES: 0 DROPPED PREFETCHES: 0
PSCL4 PREFETCHES SAME FILL-ORIGIN LEVEL: 0 DIFFERENT FILL-ORIGIN LEVEL: 0

PSCL3 TOTAL     ACCESS:     106946  HIT:     106082  MISS:        864  HIT %:    99.1921  MISS %:   0.807884   MPKI: 0.01728
PSCL3 LOAD TRANSLATION ACCESS:      80244  HIT:      79380  MISS:        864  HIT %:    98.9233  MISS %:    1.07672   MPKI: 0.01728
PSCL3 TRANSLATION FROM L1D PREFETCHER ACCESS:      26702  HIT:      26702  MISS:          0  HIT %:        100  MISS %:          0   MPKI: 0
PSCL3 PREFETCH  REQUESTED:          0  ISSUED:          0  USEFUL:          0  USELESS:          0
PSCL3 USEFUL LOAD PREFETCHES:          0 PREFETCH ISSUED TO LOWER LEVEL:          0  ACCURACY: -nan
PSCL3 TIMELY PREFETCHES:          0 LATE PREFETCHES: 0 DROPPED PREFETCHES: 0
PSCL3 PREFETCHES SAME FILL-ORIGIN LEVEL: 0 DIFFERENT FILL-ORIGIN LEVEL: 0

PSCL2 TOTAL     ACCESS:     105275  HIT:      77889  MISS:      27386  HIT %:    73.9862  MISS %:    26.0138   MPKI: 0.54772
PSCL2 LOAD TRANSLATION ACCESS:      83676  HIT:      56290  MISS:      27386  HIT %:    67.2714  MISS %:    32.7286   MPKI: 0.54772
PSCL2 TRANSLATION FROM L1D PREFETCHER ACCESS:      21599  HIT:      21599  MISS:          0  HIT %:        100  MISS %:          0   MPKI: 0
PSCL2 PREFETCH  REQUESTED:          0  ISSUED:          0  USEFUL:          0  USELESS:          0
PSCL2 USEFUL LOAD PREFETCHES:          0 PREFETCH ISSUED TO LOWER LEVEL:          0  ACCURACY: -nan
PSCL2 TIMELY PREFETCHES:          0 LATE PREFETCHES: 0 DROPPED PREFETCHES: 0
PSCL2 PREFETCHES SAME FILL-ORIGIN LEVEL: 0 DIFFERENT FILL-ORIGIN LEVEL: 0

LLC TOTAL     ACCESS:    1330442  HIT:    1206240  MISS:     124202  HIT %:    90.6646  MISS %:    9.33539   MPKI: 2.48404
LLC LOAD      ACCESS:     391430  HIT:     329015  MISS:      62415  HIT %:    84.0546  MISS %:    15.9454   MPKI: 1.2483
LLC RFO       ACCESS:      52106  HIT:      31523  MISS:      20583  HIT %:    60.4978  MISS %:    39.5022   MPKI: 0.41166
LLC PREFETCH  ACCESS:     698832  HIT:     662682  MISS:      36150  HIT %:    94.8271  MISS %:    5.17292   MPKI: 0.723
LLC WRITEBACK ACCESS:     131581  HIT:     129175  MISS:       2406  HIT %:    98.1715  MISS %:    1.82853   MPKI: 0.04812
LLC LOAD TRANSLATION ACCESS:      47411  HIT:      44894  MISS:       2517  HIT %:    94.6911  MISS %:    5.30889   MPKI: 0.05034
LLC TRANSLATION FROM L1D PREFETCHER ACCESS:       9082  HIT:       8951  MISS:        131  HIT %:    98.5576  MISS %:    1.44241   MPKI: 0.00262
LLC PREFETCH  REQUESTED:          0  ISSUED:          0  USEFUL:       2000  USELESS:      37878
LLC USEFUL LOAD PREFETCHES:       2000 PREFETCH ISSUED TO LOWER LEVEL:      36150  ACCURACY: 5.5325
LLC TIMELY PREFETCHES:       2000 LATE PREFETCHES: 0 DROPPED PREFETCHES: 0
LLC PREFETCHES SAME FILL-ORIGIN LEVEL: 717 DIFFERENT FILL-ORIGIN LEVEL: 0
LLC AVERAGE MISS LATENCY: 154.244 cycles
LLC RQ	ACCESS:     500032	FORWARD:          0	MERGED:          0	TO_CACHE:     500029
LLC WQ	ACCESS:     131581	FORWARD:          3	MERGED:          0	TO_CACHE:     131581
LLC PQ	ACCESS:     699155	FORWARD:          0	MERGED:        309	TO_CACHE:     698846

LLC Dense regions hint to LLC: 0

RAW hits: 999462
Loads Generated: 12096670
Loads sent to L1D: 11097208
Stores Generated: 5073603
Stores sent to L1D: 5073610
Major fault: 0 Minor fault: 7361
Allocated PAGES: 7361
I-Shadow cache 408 bytes
Touched + WorthPF tables 6144 bytes 
MMA filter 174 bytes 
FNL filter 272 bytes 
TOTAL PREFETCHER STORAGE SIZE: 25174 bytes
CPU 0 L1I next line prefetcher final stats
------------------
Depth Distribution
------------------
depth 0: 93171
depth 1: 310551
depth 2: 825242
depth 3: 288155
depth 4: 3338
depth 5: 0
depth 6: 0
depth 7: 0
depth 8: 0
depth 9: 0
depth 10: 0
depth 11: 0
depth 12: 0
depth 13: 0
depth 14: 0
depth 15: 0
depth 16: 0
depth 17: 0
depth 18: 0
depth 19: 0
depth 20: 0
depth 21: 0
depth 22: 0
depth 23: 0
depth 24: 0
depth 25: 0
depth 26: 0
depth 27: 0
depth 28: 0
depth 29: 0
Total: 1520457
------------------
ST read accesses: 423071
ST write accesses: 133706
PT read accesses: 9495385
PT write accesses: 504464
FILTER read accesses: 3381475
FILTER write accesses: 3468926
GHR read accesses: 1339223
GHR write accesses: 53443
PERC read accesses: 70748334
PERC write accesses: 8444716
GHR counter read accesses: 1113554
GHR counter write accesses: 1765756
GHR ip read accesses: 3813123
GHR ip write accesses: 2227108
ST tag read accesses: 17928084
ST tag write accesses: 2747254

DRAM Statistics
 CHANNEL 0
 RQ ROW_BUFFER_HIT:      23581  ROW_BUFFER_MISS:      98214
 DBUS_CONGESTED:        104
 WQ ROW_BUFFER_HIT:      11530  ROW_BUFFER_MISS:      46358  FULL:          0

 AVG_CONGESTED_CYCLE: 4
 All warmup complete: 2
Channel 0 Bank busy for read cycles: 0
Channel 0 Bank busy for write cycles: 0
Channel 0
Rank 0
0banks busy for read cycles: 60106998
0banks busy for write cycles: 25353
1banks busy for read cycles: 7415661
1banks busy for write cycles: 3559938
2banks busy for read cycles: 1777055
2banks busy for write cycles: 1109284
3banks busy for read cycles: 533921
3banks busy for write cycles: 425659
4banks busy for read cycles: 239535
4banks busy for write cycles: 240080
5banks busy for read cycles: 141501
5banks busy for write cycles: 161237
6banks busy for read cycles: 114354
6banks busy for write cycles: 126195
7banks busy for read cycles: 72532
7banks busy for write cycles: 111995
8banks busy for read cycles: 60566
8banks busy for write cycles: 146983

CPU 0 Branch Prediction Accuracy: 97.5565% MPKI: 4.59006 Average ROB Occupancy at Mispredict: 38.8994
Branch types
NOT_BRANCH: 40607200 81.2144%
BRANCH_DIRECT_JUMP: 451601 0.903202%
BRANCH_INDIRECT: 151580 0.30316%
BRANCH_CONDITIONAL: 7041635 14.0833%
BRANCH_DIRECT_CALL: 647826 1.29565%
BRANCH_INDIRECT_CALL: 211373 0.422746%
BRANCH_RETURN: 888439 1.77688%
BRANCH_OTHER: 0 0%

DRAM PAGES: 1048576
Allocated PAGES: 7361
