
*** ChampSim Multicore Out-of-Order Simulator ***

Warmup Instructions: 50000000
Simulation Instructions: 50000000
Number of CPUs: 1
LLC sets: 2048
LLC ways: 16
Off-chip DRAM Size: 4096 MB Channels: 1 Width: 64-bit Data Rate: 6400 MT/s
CPU 0 runs ../IPC-traces//server_017.champsimtrace.xz
.xz
NUM_OF_IPS_IN_CRITICAL_IP_TRAINING: 64
NUM_OF_CRITICAL_IP_TRAINING_TABLE_WAYS: 2
NUM_OF_CRITICAL_IP_TRAINING_TABLE_SETS: 32
WOBBLY_CRITICAL_IP_CACHE_SETS: 32
WOBBLY_CRITICAL_IP_CACHE_WAYS: 4
BTB has LRU replacement policy
ITLB has LRU replacement policy
DTLB has LRU replacement policy
STLB has LRU replacement policy
CPU 0 L1I next line prefetcher
L1I has LRU replacement policy
IP Table Entries: 64
L1D has LRU replacement policy
Initialize SRRIP state for L2C
Initialize DRRIP state for LLC
Heartbeat CPU 0 instructions: 10000000 cycles: 3143062 heartbeat IPC: 3.18161 cumulative IPC: 3.18161 (Simulation time: 0 hr 5 min 35 sec) 
Heartbeat CPU 0 instructions: 20000000 cycles: 6282782 heartbeat IPC: 3.185 cumulative IPC: 3.1833 (Simulation time: 0 hr 10 min 25 sec) 
Heartbeat CPU 0 instructions: 30000002 cycles: 9432241 heartbeat IPC: 3.17515 cumulative IPC: 3.18058 (Simulation time: 0 hr 14 min 25 sec) 
Heartbeat CPU 0 instructions: 40000000 cycles: 12573590 heartbeat IPC: 3.18335 cumulative IPC: 3.18127 (Simulation time: 0 hr 17 min 53 sec) 
Heartbeat CPU 0 instructions: 50000000 cycles: 15730320 heartbeat IPC: 3.16783 cumulative IPC: 3.17857 (Simulation time: 0 hr 21 min 9 sec) 

Warmup complete CPU 0 instructions: 50000004 cycles: 15730321 (Simulation time: 0 hr 21 min 9 sec) 

% increase in all ip prefetch 421.614
% increase in all ip prefetch -11.8151
Heartbeat CPU 0 instructions: 60000000 cycles: 35064738 heartbeat IPC: 0.517212 cumulative IPC: 0.517212 (Simulation time: 0 hr 25 min 34 sec) 
Heartbeat CPU 0 instructions: 70000000 cycles: 54446521 heartbeat IPC: 0.515948 cumulative IPC: 0.51658 (Simulation time: 0 hr 30 min 0 sec) 
Heartbeat CPU 0 instructions: 80000000 cycles: 73717152 heartbeat IPC: 0.518924 cumulative IPC: 0.517359 (Simulation time: 0 hr 34 min 10 sec) 
Heartbeat CPU 0 instructions: 90000002 cycles: 99273322 heartbeat IPC: 0.391295 cumulative IPC: 0.478795 (Simulation time: 0 hr 41 min 32 sec) 
Heartbeat CPU 0 instructions: 100000003 cycles: 123625493 heartbeat IPC: 0.410641 cumulative IPC: 0.463413 (Simulation time: 0 hr 48 min 39 sec) 
Finished CPU 0 instructions: 50000003 cycles: 107895189 cumulative IPC: 0.463413 (Simulation time: 0 hr 48 min 39 sec) 

ChampSim completed all CPUs

Region of Interest Statistics

CPU 0 cumulative IPC: 0.463413 instructions: 50000003 cycles: 107895189

CPU 0 Average Load ROB stall cycles: 3.02292e+07
CPU 0 Fraction of times ROB stalled by Loads: 45.7695
CPU 0 Percentage of Load stall cycles in Total stall cycles: 2.33662e+08
Issued all: 47664213
Issued LT all: 42243546
rob_not_full_when_issued_lt_all: 17180312
Issued LT one: 36650603
rob_not_full_when_issued_lt_one: 13247174
 Total stall cycles: 91228259
 Total load stall cycles: 213165524681764
CPU 0 NUM of IPS identified critical: 0
CPU 0 Num of Load IPs stalling ROB: 5244
Threshold modification factor: -1
Max PIST entries: 64
Min PIST entries: 0
Avg PIST entries: 30.21
Trouble in retire width: 0.820587
MaC = Marked as critical.
lt_50_percent_before_Mac: 0
gt_90_percent_before_Mac: 0
gt_75_percent_before_Mac: 0
gt_50_percent_before_Mac: 0
stall_proportion_bin_same_before_after: 0
stall_proportion_bin_lower_before_after: 0
stall_proportion_bin_upper_before_after: 0
average_stall_proportion_before: -nan
average_stall_proportion_after: -nan
Critical IP stalls, total frequency: 0
Non-critical IP stalls, total frequency: 3227500
Total Freq all stalling IPs: 3227500
stat_90_percent_critical_ip_stalls_freq: 2905455
stat_90_percent_non_critical_ip_stalls_freq: 322045
Critical_IP_ROB_Stalls_Bucket_0: 0
Non-critical_IP_ROB_Stalls_Bucket_0: 469402
Critical_IP_ROB_Stalls_Bucket_1: 0
Non-critical_IP_ROB_Stalls_Bucket_1: 594770
Critical_IP_ROB_Stalls_Bucket_2: 0
Non-critical_IP_ROB_Stalls_Bucket_2: 474828
Critical_IP_ROB_Stalls_Bucket_3: 0
Non-critical_IP_ROB_Stalls_Bucket_3: 325706
Critical_IP_ROB_Stalls_Bucket_4: 0
Non-critical_IP_ROB_Stalls_Bucket_4: 186594
Critical_IP_ROB_Stalls_Bucket_5: 0
Non-critical_IP_ROB_Stalls_Bucket_5: 168141
Critical_IP_ROB_Stalls_Bucket_6: 0
Non-critical_IP_ROB_Stalls_Bucket_6: 1008059
0 => IPs accounting for >50 percent of stalls, 1 => 55, 2 => 60, 3 => 65 and so on till 90.
percent50: 50.1637 num IPs:  8
percent55: 55.0324 num IPs: 15
percent60: 60.1855 num IPs: 36
percent65: 65.0153 num IPs: 71
percent70: 70.0635 num IPs: 130
percent75: 75.0459 num IPs: 206
percent80: 80.0135 num IPs: 283
percent85: 85.0132 num IPs: 366
percent90: 90.0217 num IPs: 470
Critical_ROB_Stalls_Percent_0_Bucket_0: 36161
Non-critical_ROB_Stalls_Percent_0_Bucket_0: 433241
Critical_ROB_Stalls_Percent_0_Bucket_1: 91111
Non-critical_ROB_Stalls_Percent_0_Bucket_1: 503659
Critical_ROB_Stalls_Percent_0_Bucket_2: 180868
Non-critical_ROB_Stalls_Percent_0_Bucket_2: 293960
Critical_ROB_Stalls_Percent_0_Bucket_3: 181183
Non-critical_ROB_Stalls_Percent_0_Bucket_3: 144523
Critical_ROB_Stalls_Percent_0_Bucket_4: 124041
Non-critical_ROB_Stalls_Percent_0_Bucket_4: 62553
Critical_ROB_Stalls_Percent_0_Bucket_5: 115160
Non-critical_ROB_Stalls_Percent_0_Bucket_5: 52981
Critical_ROB_Stalls_Percent_0_Bucket_6: 890509
Non-critical_ROB_Stalls_Percent_0_Bucket_6: 117550
Critical_ROB_Stalls_Percent_1_Bucket_0: 61176
Non-critical_ROB_Stalls_Percent_1_Bucket_0: 408226
Critical_ROB_Stalls_Percent_1_Bucket_1: 146352
Non-critical_ROB_Stalls_Percent_1_Bucket_1: 448418
Critical_ROB_Stalls_Percent_1_Bucket_2: 202440
Non-critical_ROB_Stalls_Percent_1_Bucket_2: 272388
Critical_ROB_Stalls_Percent_1_Bucket_3: 212351
Non-critical_ROB_Stalls_Percent_1_Bucket_3: 113355
Critical_ROB_Stalls_Percent_1_Bucket_4: 132873
Non-critical_ROB_Stalls_Percent_1_Bucket_4: 53721
Critical_ROB_Stalls_Percent_1_Bucket_5: 125751
Non-critical_ROB_Stalls_Percent_1_Bucket_5: 42390
Critical_ROB_Stalls_Percent_1_Bucket_6: 895229
Non-critical_ROB_Stalls_Percent_1_Bucket_6: 112830
Critical_ROB_Stalls_Percent_2_Bucket_0: 134955
Non-critical_ROB_Stalls_Percent_2_Bucket_0: 334447
Critical_ROB_Stalls_Percent_2_Bucket_1: 192818
Non-critical_ROB_Stalls_Percent_2_Bucket_1: 401952
Critical_ROB_Stalls_Percent_2_Bucket_2: 221124
Non-critical_ROB_Stalls_Percent_2_Bucket_2: 253704
Critical_ROB_Stalls_Percent_2_Bucket_3: 224327
Non-critical_ROB_Stalls_Percent_2_Bucket_3: 101379
Critical_ROB_Stalls_Percent_2_Bucket_4: 138327
Non-critical_ROB_Stalls_Percent_2_Bucket_4: 48267
Critical_ROB_Stalls_Percent_2_Bucket_5: 130010
Non-critical_ROB_Stalls_Percent_2_Bucket_5: 38131
Critical_ROB_Stalls_Percent_2_Bucket_6: 900925
Non-critical_ROB_Stalls_Percent_2_Bucket_6: 107134
Critical_ROB_Stalls_Percent_3_Bucket_0: 175747
Non-critical_ROB_Stalls_Percent_3_Bucket_0: 293655
Critical_ROB_Stalls_Percent_3_Bucket_1: 229655
Non-critical_ROB_Stalls_Percent_3_Bucket_1: 365115
Critical_ROB_Stalls_Percent_3_Bucket_2: 254505
Non-critical_ROB_Stalls_Percent_3_Bucket_2: 220323
Critical_ROB_Stalls_Percent_3_Bucket_3: 230814
Non-critical_ROB_Stalls_Percent_3_Bucket_3: 94892
Critical_ROB_Stalls_Percent_3_Bucket_4: 144152
Non-critical_ROB_Stalls_Percent_3_Bucket_4: 42442
Critical_ROB_Stalls_Percent_3_Bucket_5: 138097
Non-critical_ROB_Stalls_Percent_3_Bucket_5: 30044
Critical_ROB_Stalls_Percent_3_Bucket_6: 925400
Non-critical_ROB_Stalls_Percent_3_Bucket_6: 82659
Critical_ROB_Stalls_Percent_4_Bucket_0: 217349
Non-critical_ROB_Stalls_Percent_4_Bucket_0: 252053
Critical_ROB_Stalls_Percent_4_Bucket_1: 280023
Non-critical_ROB_Stalls_Percent_4_Bucket_1: 314747
Critical_ROB_Stalls_Percent_4_Bucket_2: 283234
Non-critical_ROB_Stalls_Percent_4_Bucket_2: 191594
Critical_ROB_Stalls_Percent_4_Bucket_3: 241217
Non-critical_ROB_Stalls_Percent_4_Bucket_3: 84489
Critical_ROB_Stalls_Percent_4_Bucket_4: 148908
Non-critical_ROB_Stalls_Percent_4_Bucket_4: 37686
Critical_ROB_Stalls_Percent_4_Bucket_5: 145495
Non-critical_ROB_Stalls_Percent_4_Bucket_5: 22646
Critical_ROB_Stalls_Percent_4_Bucket_6: 945072
Non-critical_ROB_Stalls_Percent_4_Bucket_6: 62987
Critical_ROB_Stalls_Percent_5_Bucket_0: 241486
Non-critical_ROB_Stalls_Percent_5_Bucket_0: 227916
Critical_ROB_Stalls_Percent_5_Bucket_1: 336829
Non-critical_ROB_Stalls_Percent_5_Bucket_1: 257941
Critical_ROB_Stalls_Percent_5_Bucket_2: 316856
Non-critical_ROB_Stalls_Percent_5_Bucket_2: 157972
Critical_ROB_Stalls_Percent_5_Bucket_3: 261728
Non-critical_ROB_Stalls_Percent_5_Bucket_3: 63978
Critical_ROB_Stalls_Percent_5_Bucket_4: 163640
Non-critical_ROB_Stalls_Percent_5_Bucket_4: 22954
Critical_ROB_Stalls_Percent_5_Bucket_5: 150539
Non-critical_ROB_Stalls_Percent_5_Bucket_5: 17602
Critical_ROB_Stalls_Percent_5_Bucket_6: 951033
Non-critical_ROB_Stalls_Percent_5_Bucket_6: 57026
Critical_ROB_Stalls_Percent_6_Bucket_0: 273737
Non-critical_ROB_Stalls_Percent_6_Bucket_0: 195665
Critical_ROB_Stalls_Percent_6_Bucket_1: 401263
Non-critical_ROB_Stalls_Percent_6_Bucket_1: 193507
Critical_ROB_Stalls_Percent_6_Bucket_2: 356293
Non-critical_ROB_Stalls_Percent_6_Bucket_2: 118535
Critical_ROB_Stalls_Percent_6_Bucket_3: 276345
Non-critical_ROB_Stalls_Percent_6_Bucket_3: 49361
Critical_ROB_Stalls_Percent_6_Bucket_4: 166982
Non-critical_ROB_Stalls_Percent_6_Bucket_4: 19612
Critical_ROB_Stalls_Percent_6_Bucket_5: 151564
Non-critical_ROB_Stalls_Percent_6_Bucket_5: 16577
Critical_ROB_Stalls_Percent_6_Bucket_6: 956254
Non-critical_ROB_Stalls_Percent_6_Bucket_6: 51805
Critical_ROB_Stalls_Percent_7_Bucket_0: 312799
Non-critical_ROB_Stalls_Percent_7_Bucket_0: 156603
Critical_ROB_Stalls_Percent_7_Bucket_1: 444406
Non-critical_ROB_Stalls_Percent_7_Bucket_1: 150364
Critical_ROB_Stalls_Percent_7_Bucket_2: 399361
Non-critical_ROB_Stalls_Percent_7_Bucket_2: 75467
Critical_ROB_Stalls_Percent_7_Bucket_3: 292258
Non-critical_ROB_Stalls_Percent_7_Bucket_3: 33448
Critical_ROB_Stalls_Percent_7_Bucket_4: 173581
Non-critical_ROB_Stalls_Percent_7_Bucket_4: 13013
Critical_ROB_Stalls_Percent_7_Bucket_5: 155095
Non-critical_ROB_Stalls_Percent_7_Bucket_5: 13046
Critical_ROB_Stalls_Percent_7_Bucket_6: 966305
Non-critical_ROB_Stalls_Percent_7_Bucket_6: 41754
Critical_ROB_Stalls_Percent_8_Bucket_0: 364197
Non-critical_ROB_Stalls_Percent_8_Bucket_0: 105205
Critical_ROB_Stalls_Percent_8_Bucket_1: 501838
Non-critical_ROB_Stalls_Percent_8_Bucket_1: 92932
Critical_ROB_Stalls_Percent_8_Bucket_2: 423224
Non-critical_ROB_Stalls_Percent_8_Bucket_2: 51604
Critical_ROB_Stalls_Percent_8_Bucket_3: 299908
Non-critical_ROB_Stalls_Percent_8_Bucket_3: 25798
Critical_ROB_Stalls_Percent_8_Bucket_4: 176936
Non-critical_ROB_Stalls_Percent_8_Bucket_4: 9658
Critical_ROB_Stalls_Percent_8_Bucket_5: 159484
Non-critical_ROB_Stalls_Percent_8_Bucket_5: 8657
Critical_ROB_Stalls_Percent_8_Bucket_6: 979868
Non-critical_ROB_Stalls_Percent_8_Bucket_6: 28191
Average ROB occupancy Load Stall Begin: 180.845
Average ROB occupancy Load Stall End: 189.951
Min ROB occupancy Load Stall Begin: 1
Max ROB occupancy Load Stall Begin: 352
Min ROB occupancy Load Stall End: 1
Max ROB occupancy Load Stall End: 352
Average ROB occupancy Critical Load Stall Begin: -nan
Average ROB occupancy Critical Load Stall End: -nan
Min ROB occupancy Critical Load Stall Begin: 400
Max ROB occupancy Critical Load Stall Begin: 0
Min ROB occupancy Critical Load Stall End: 400
Max ROB occupancy Critical Load Stall End: 0
 ROB Load Stall Begin Bucket Count 0: 666480
 ROB Load Stall End Bucket Count 0: 469402
 ROB Critical Load Stall Begin Bucket Count 0: 0
 ROB Critical Load Stall End Bucket Count 0: 0
 ROB Load Stall Begin Bucket Count 1: 543525
 ROB Load Stall End Bucket Count 1: 594770
 ROB Critical Load Stall Begin Bucket Count 1: 0
 ROB Critical Load Stall End Bucket Count 1: 0
 ROB Load Stall Begin Bucket Count 2: 430665
 ROB Load Stall End Bucket Count 2: 474828
 ROB Critical Load Stall Begin Bucket Count 2: 0
 ROB Critical Load Stall End Bucket Count 2: 0
 ROB Load Stall Begin Bucket Count 3: 273196
 ROB Load Stall End Bucket Count 3: 325706
 ROB Critical Load Stall Begin Bucket Count 3: 0
 ROB Critical Load Stall End Bucket Count 3: 0
 ROB Load Stall Begin Bucket Count 4: 172714
 ROB Load Stall End Bucket Count 4: 186594
 ROB Critical Load Stall Begin Bucket Count 4: 0
 ROB Critical Load Stall End Bucket Count 4: 0
 ROB Load Stall Begin Bucket Count 5: 163236
 ROB Load Stall End Bucket Count 5: 168141
 ROB Critical Load Stall Begin Bucket Count 5: 0
 ROB Critical Load Stall End Bucket Count 5: 0
 ROB Load Stall Begin Bucket Count 6: 977684
 ROB Load Stall End Bucket Count 6: 1008059
 ROB Critical Load Stall Begin Bucket Count 6: 0
 ROB Critical Load Stall End Bucket Count 6: 0
PIST Tag Read Accesses: 2577300
PIST Read Accesses: 1288650
PIST Tag Write Accesses: 2577300
PIST Write Accesses: 1288650
Criticality detector called times: 1620333
Max global_stall_cycles_count: 3946136
Threshold Modified: 1 times, factor: -1
Sturdy critical IP cache stats: 
 Unused entries: 0
CIC Tag Read Accesses: 0
CIC Read Accesses: 0
CIC Tag Write Accesses: 0
CIC Write Accesses: 0
Wobbly critical IP cache stats: 
 Unused entries: 109
CIC Tag Read Accesses: 89293356
CIC Read Accesses: 0
CIC Tag Write Accesses: 72566
CIC Write Accesses: 0
ITLB TOTAL     ACCESS:   10025611  HIT:    9596589  MISS:     429022  HIT %:    95.7207  MISS %:    4.27926   MPKI: 8.58044
ITLB LOAD TRANSLATION ACCESS:    8287615  HIT:    8275492  MISS:      12123  HIT %:    99.8537  MISS %:   0.146279   MPKI: 0.24246
ITLB TRANSLATION FROM L1D PREFETCHER ACCESS:    1737996  HIT:    1321097  MISS:     416899  HIT %:    76.0127  MISS %:    23.9873   MPKI: 8.33798
ITLB PREFETCH  REQUESTED:          0  ISSUED:          0  USEFUL:     376668  USELESS:      40226
ITLB USEFUL LOAD PREFETCHES:     376668 PREFETCH ISSUED TO LOWER LEVEL:          0  ACCURACY: inf
ITLB TIMELY PREFETCHES:     376668 LATE PREFETCHES: 354 DROPPED PREFETCHES: 89
ITLB PREFETCHES SAME FILL-ORIGIN LEVEL: 0 DIFFERENT FILL-ORIGIN LEVEL: 0
ITLB AVERAGE MISS LATENCY: 51918.1 cycles
ITLB RQ	ACCESS:   14193871	FORWARD:          0	MERGED:    4116164	TO_CACHE:   10077707

DTLB TOTAL     ACCESS:   10621904  HIT:   10181892  MISS:     440012  HIT %:    95.8575  MISS %:     4.1425   MPKI: 8.80024
DTLB LOAD TRANSLATION ACCESS:   10621904  HIT:   10181892  MISS:     440012  HIT %:    95.8575  MISS %:     4.1425   MPKI: 8.80024
DTLB PREFETCH  REQUESTED:          0  ISSUED:          0  USEFUL:          0  USELESS:          0
DTLB USEFUL LOAD PREFETCHES:          0 PREFETCH ISSUED TO LOWER LEVEL:          0  ACCURACY: -nan
DTLB TIMELY PREFETCHES:          0 LATE PREFETCHES: 0 DROPPED PREFETCHES: 0
DTLB PREFETCHES SAME FILL-ORIGIN LEVEL: 0 DIFFERENT FILL-ORIGIN LEVEL: 0
DTLB AVERAGE MISS LATENCY: 24.4408 cycles
DTLB RQ	ACCESS:   15435095	FORWARD:          0	MERGED:    4735321	TO_CACHE:   10699774

STLB TOTAL     ACCESS:    1469511  HIT:    1406101  MISS:      63410  HIT %:     95.685  MISS %:    4.31504   MPKI: 1.2682
STLB LOAD TRANSLATION ACCESS:     451781  HIT:     389368  MISS:      62413  HIT %:    86.1851  MISS %:    13.8149   MPKI: 1.24826
STLB TRANSLATION FROM L1D PREFETCHER ACCESS:    1017730  HIT:    1016733  MISS:        997  HIT %:     99.902  MISS %:  0.0979631   MPKI: 0.01994
STLB PREFETCH  REQUESTED:          0  ISSUED:          0  USEFUL:        747  USELESS:        251
STLB USEFUL LOAD PREFETCHES:        747 PREFETCH ISSUED TO LOWER LEVEL:          0  ACCURACY: inf
STLB TIMELY PREFETCHES:        747 LATE PREFETCHES: 0 DROPPED PREFETCHES: 89
STLB PREFETCHES SAME FILL-ORIGIN LEVEL: 0 DIFFERENT FILL-ORIGIN LEVEL: 0
STLB AVERAGE MISS LATENCY: 111.744 cycles
STLB RQ	ACCESS:    1510995	FORWARD:          0	MERGED:      41395	TO_CACHE:    1469600

STLB Hit, L1D data hit: 0
STLB Hit, L2C data hit: 0
STLB Hit, LLC data hit: 0
STLB Hit, LLC data miss: 0
STLB STLB hints to L2: 0
L1D TOTAL     ACCESS:   13823214  HIT:   12010038  MISS:    1813176  HIT %:    86.8831  MISS %:    13.1169   MPKI: 36.2635
L1D LOAD      ACCESS:    7323173  HIT:    6713288  MISS:     609885  HIT %:    91.6718  MISS %:    8.32815   MPKI: 12.1977
L1D RFO       ACCESS:    5916739  HIT:    5044471  MISS:     872268  HIT %:    85.2576  MISS %:    14.7424   MPKI: 17.4454
L1D PREFETCH  ACCESS:     583302  HIT:     252279  MISS:     331023  HIT %:    43.2502  MISS %:    56.7498   MPKI: 6.62046
L1D PREFETCH  REQUESTED:    1283744  ISSUED:    1283744  USEFUL:     257678  USELESS:      73335
L1D USEFUL LOAD PREFETCHES:     257678 PREFETCH ISSUED TO LOWER LEVEL:     378603  ACCURACY: 68.0602
L1D TIMELY PREFETCHES:     257678 LATE PREFETCHES: 47576 DROPPED PREFETCHES: 0
L1D PREFETCHES SAME FILL-ORIGIN LEVEL: 378603 DIFFERENT FILL-ORIGIN LEVEL: 0
L1D AVERAGE MISS LATENCY: 1.67918e+06 cycles
L1D RQ	ACCESS:   10780100	FORWARD:          0	MERGED:    3312071	TO_CACHE:    7358624
L1D WQ	ACCESS:    8175288	FORWARD:     109405	MERGED:      98817	TO_CACHE:    8076471
L1D PQ	ACCESS:     641872	FORWARD:          0	MERGED:          0	TO_CACHE:     641872

L1D UNIQUE REGIONS ACCESSED: 0
L1D REGIONS CONFLICTS: 0
L1D Cross Page Prefetch Requests: 0
L1D Same Page Prefetch Requests: 1314359
L1D ROI Sum of L1D PQ occupancy: 9407147
L1D PREFETCHES PUSHED FROM L2C: 0
L1I TOTAL     ACCESS:   14118944  HIT:   11281285  MISS:    2837659  HIT %:    79.9018  MISS %:    20.0982   MPKI: 56.7532
L1I LOAD      ACCESS:    9651194  HIT:    9629841  MISS:      21353  HIT %:    99.7788  MISS %:   0.221247   MPKI: 0.42706
L1I PREFETCH  ACCESS:    4467750  HIT:    1651444  MISS:    2816306  HIT %:    36.9637  MISS %:    63.0363   MPKI: 56.3261
L1I PREFETCH  REQUESTED:    4717408  ISSUED:    4707899  USEFUL:    2348408  USELESS:     467886
L1I USEFUL LOAD PREFETCHES:    2348408 PREFETCH ISSUED TO LOWER LEVEL:    2824879  ACCURACY: 83.133
L1I TIMELY PREFETCHES:    2348408 LATE PREFETCHES: 8561 DROPPED PREFETCHES: 154
L1I PREFETCHES SAME FILL-ORIGIN LEVEL: 2824879 DIFFERENT FILL-ORIGIN LEVEL: 0
L1I AVERAGE MISS LATENCY: 236254 cycles
L1I RQ	ACCESS:   13980393	FORWARD:          0	MERGED:    4324249	TO_CACHE:    9656144
L1I PQ	ACCESS:    4707899	FORWARD:          0	MERGED:     170172	TO_CACHE:    4537727

BTB TOTAL     ACCESS:    5420736  HIT:    5179353  MISS:     241383  HIT %:     95.547  MISS %:    4.45296   MPKI: 4.82766
BTB BRANCH_DIRECT_JUMP	ACCESS:     464500  HIT:     462787  MISS:       1713
BTB BRANCH_INDIRECT	ACCESS:      45704  HIT:      45540  MISS:        164
BTB BRANCH_CONDITIONAL	ACCESS:    3156565  HIT:    3151071  MISS:       5494
BTB BRANCH_DIRECT_CALL	ACCESS:     675450  HIT:     671839  MISS:       3611
BTB BRANCH_INDIRECT_CALL	ACCESS:     201532  HIT:     175397  MISS:      26135
BTB BRANCH_RETURN	ACCESS:     876985  HIT:     672719  MISS:     204266
BTB BRANCH_OTHER ACCESS:          0  HIT:          0  MISS:          0

L2C TOTAL     ACCESS:    5984065  HIT:    4158196  MISS:    1825869  HIT %:    69.4878  MISS %:    30.5122   MPKI: 36.5174
L2C LOAD      ACCESS:     575089  HIT:     159758  MISS:     415331  HIT %:    27.7797  MISS %:    72.2203   MPKI: 8.30662
L2C DATA LOAD MPKI: 8.19212
L2C INSTRUCTION LOAD MPKI: 0.1145
L2C RFO       ACCESS:     872263  HIT:      34287  MISS:     837976  HIT %:    3.93081  MISS %:    96.0692   MPKI: 16.7595
L2C PREFETCH  ACCESS:    3336903  HIT:    2840310  MISS:     496593  HIT %:    85.1181  MISS %:    14.8819   MPKI: 9.93186
L2C DATA PREFETCH MPKI: 7.20196
L2C INSTRUCTION PREFETCH MPKI: 2.7299
L2C WRITEBACK ACCESS:    1110941  HIT:    1066207  MISS:      44734  HIT %:    95.9733  MISS %:    4.02668   MPKI: 0.89468
L2C LOAD TRANSLATION ACCESS:      87249  HIT:      57033  MISS:      30216  HIT %:    65.3681  MISS %:    34.6319   MPKI: 0.60432
L2C TRANSLATION FROM L1D PREFETCHER ACCESS:       1620  HIT:        601  MISS:       1019  HIT %:    37.0988  MISS %:    62.9012   MPKI: 0.02038
L2C PREFETCH  REQUESTED:     347231  ISSUED:     347196  USEFUL:       7790  USELESS:     491221
L2C USEFUL LOAD PREFETCHES:       7790 PREFETCH ISSUED TO LOWER LEVEL:     497963  ACCURACY: 1.56437
L2C TIMELY PREFETCHES:       7790 LATE PREFETCHES: 1368 DROPPED PREFETCHES: 0
L2C PREFETCHES SAME FILL-ORIGIN LEVEL: 195697 DIFFERENT FILL-ORIGIN LEVEL: 0
L2C AVERAGE MISS LATENCY: 169.241 cycles
L2C RQ	ACCESS:    1536237	FORWARD:          0	MERGED:          0	TO_CACHE:    1536222
L2C WQ	ACCESS:    1110941	FORWARD:         15	MERGED:          0	TO_CACHE:    1110941
L2C PQ	ACCESS:    3550666	FORWARD:          0	MERGED:      50667	TO_CACHE:    3499999

L2C Instructions Evicting Data 128117
L2C Translations Evicting Data 27958
L2C Data Evicting Data 1455280
L2C Instructions Evicting Instructions 11314
L2C Translations Evicting Instructions 2838
L2C Data Evicting Instructions 125058
L2C Instructions Evicting Translations 2789
L2C Translations Evicting Translations 439
L2C Data Evicting Translations 27342
L2C Dense regions hint from L2: 0
PSCL5 TOTAL     ACCESS:      63499  HIT:      63499  MISS:          0  HIT %:        100  MISS %:          0   MPKI: 0
PSCL5 LOAD TRANSLATION ACCESS:      62413  HIT:      62413  MISS:          0  HIT %:        100  MISS %:          0   MPKI: 0
PSCL5 TRANSLATION FROM L1D PREFETCHER ACCESS:       1086  HIT:       1086  MISS:          0  HIT %:        100  MISS %:          0   MPKI: 0
PSCL5 PREFETCH  REQUESTED:          0  ISSUED:          0  USEFUL:          0  USELESS:          0
PSCL5 USEFUL LOAD PREFETCHES:          0 PREFETCH ISSUED TO LOWER LEVEL:          0  ACCURACY: -nan
PSCL5 TIMELY PREFETCHES:          0 LATE PREFETCHES: 0 DROPPED PREFETCHES: 0
PSCL5 PREFETCHES SAME FILL-ORIGIN LEVEL: 0 DIFFERENT FILL-ORIGIN LEVEL: 0

PSCL4 TOTAL     ACCESS:      35849  HIT:      35724  MISS:        125  HIT %:    99.6513  MISS %:   0.348685   MPKI: 0.0025
PSCL4 LOAD TRANSLATION ACCESS:      34926  HIT:      34801  MISS:        125  HIT %:    99.6421  MISS %:     0.3579   MPKI: 0.0025
PSCL4 TRANSLATION FROM L1D PREFETCHER ACCESS:        923  HIT:        923  MISS:          0  HIT %:        100  MISS %:          0   MPKI: 0
PSCL4 PREFETCH  REQUESTED:          0  ISSUED:          0  USEFUL:          0  USELESS:          0
PSCL4 USEFUL LOAD PREFETCHES:          0 PREFETCH ISSUED TO LOWER LEVEL:          0  ACCURACY: -nan
PSCL4 TIMELY PREFETCHES:          0 LATE PREFETCHES: 0 DROPPED PREFETCHES: 0
PSCL4 PREFETCHES SAME FILL-ORIGIN LEVEL: 0 DIFFERENT FILL-ORIGIN LEVEL: 0

PSCL3 TOTAL     ACCESS:      63249  HIT:      62769  MISS:        480  HIT %:    99.2411  MISS %:   0.758905   MPKI: 0.0096
PSCL3 LOAD TRANSLATION ACCESS:      62310  HIT:      61830  MISS:        480  HIT %:    99.2297  MISS %:   0.770342   MPKI: 0.0096
PSCL3 TRANSLATION FROM L1D PREFETCHER ACCESS:        939  HIT:        939  MISS:          0  HIT %:        100  MISS %:          0   MPKI: 0
PSCL3 PREFETCH  REQUESTED:          0  ISSUED:          0  USEFUL:          0  USELESS:          0
PSCL3 USEFUL LOAD PREFETCHES:          0 PREFETCH ISSUED TO LOWER LEVEL:          0  ACCURACY: -nan
PSCL3 TIMELY PREFETCHES:          0 LATE PREFETCHES: 0 DROPPED PREFETCHES: 0
PSCL3 PREFETCHES SAME FILL-ORIGIN LEVEL: 0 DIFFERENT FILL-ORIGIN LEVEL: 0

PSCL2 TOTAL     ACCESS:      63416  HIT:      38695  MISS:      24721  HIT %:    61.0177  MISS %:    38.9823   MPKI: 0.49442
PSCL2 LOAD TRANSLATION ACCESS:      62735  HIT:      38014  MISS:      24721  HIT %:    60.5946  MISS %:    39.4054   MPKI: 0.49442
PSCL2 TRANSLATION FROM L1D PREFETCHER ACCESS:        681  HIT:        681  MISS:          0  HIT %:        100  MISS %:          0   MPKI: 0
PSCL2 PREFETCH  REQUESTED:          0  ISSUED:          0  USEFUL:          0  USELESS:          0
PSCL2 USEFUL LOAD PREFETCHES:          0 PREFETCH ISSUED TO LOWER LEVEL:          0  ACCURACY: -nan
PSCL2 TIMELY PREFETCHES:          0 LATE PREFETCHES: 0 DROPPED PREFETCHES: 0
PSCL2 PREFETCHES SAME FILL-ORIGIN LEVEL: 0 DIFFERENT FILL-ORIGIN LEVEL: 0

LLC TOTAL     ACCESS:    2819399  HIT:     968067  MISS:    1851332  HIT %:    34.3359  MISS %:    65.6641   MPKI: 37.0266
LLC LOAD      ACCESS:     413987  HIT:     238425  MISS:     175562  HIT %:    57.5924  MISS %:    42.4076   MPKI: 3.51124
LLC RFO       ACCESS:     837944  HIT:     212658  MISS:     625286  HIT %:    25.3785  MISS %:    74.6215   MPKI: 12.5057
LLC PREFETCH  ACCESS:     497962  HIT:     134144  MISS:     363818  HIT %:    26.9386  MISS %:    73.0614   MPKI: 7.27636
LLC WRITEBACK ACCESS:    1038271  HIT:     368813  MISS:     669458  HIT %:    35.5218  MISS %:    64.4782   MPKI: 13.3892
LLC LOAD TRANSLATION ACCESS:      30216  HIT:      13633  MISS:      16583  HIT %:    45.1185  MISS %:    54.8815   MPKI: 0.33166
LLC TRANSLATION FROM L1D PREFETCHER ACCESS:       1019  HIT:        394  MISS:        625  HIT %:    38.6654  MISS %:    61.3346   MPKI: 0.0125
LLC PREFETCH  REQUESTED:          0  ISSUED:          0  USEFUL:       1500  USELESS:     370047
LLC USEFUL LOAD PREFETCHES:       1500 PREFETCH ISSUED TO LOWER LEVEL:     363819  ACCURACY: 0.412293
LLC TIMELY PREFETCHES:       1500 LATE PREFETCHES: 0 DROPPED PREFETCHES: 0
LLC PREFETCHES SAME FILL-ORIGIN LEVEL: 0 DIFFERENT FILL-ORIGIN LEVEL: 0
LLC AVERAGE MISS LATENCY: 136.838 cycles
LLC RQ	ACCESS:    1283175	FORWARD:          0	MERGED:          0	TO_CACHE:    1283167
LLC WQ	ACCESS:    1038271	FORWARD:          8	MERGED:          0	TO_CACHE:    1038271
LLC PQ	ACCESS:     497963	FORWARD:          0	MERGED:          0	TO_CACHE:     497963

LLC Dense regions hint to LLC: 0

RAW hits: 1308501
Loads Generated: 12088598
Loads sent to L1D: 10780100
Stores Generated: 8175295
Stores sent to L1D: 8175288
Major fault: 0 Minor fault: 24906
Allocated PAGES: 24906
I-Shadow cache 408 bytes
Touched + WorthPF tables 6144 bytes 
MMA filter 174 bytes 
FNL filter 272 bytes 
TOTAL PREFETCHER STORAGE SIZE: 25174 bytes
CPU 0 L1I next line prefetcher final stats

stream: 
stream:times selected: 3674633
stream:pref_filled: 116160
stream:pref_useful: 27019
stream:pref_late: 6585
stream:misses: 33170
stream:misses_by_poll: 0

CS: 
CS:times selected: 3187838
CS:pref_filled: 568752
CS:pref_useful: 548821
CS:pref_late: 42414
CS:misses: 52741
CS:misses_by_poll: 397

CPLX: 
CPLX:times selected: 477920
CPLX:pref_filled: 19747
CPLX:pref_useful: 1474
CPLX:pref_late: 342
CPLX:misses: 93877
CPLX:misses_by_poll: 5

NL_L1: 
NL:times selected: 2891
NL:pref_filled: 726
NL:pref_useful: 23
NL:pref_late: 2
NL:misses: 1035
NL:misses_by_poll: 1

total selections: 7343282
total_filled: 331023
total_useful: 257678
total_late: 50203
total_polluted: 403
total_misses_after_warmup: 645337
conflicts: 2363953
Degree Incremented Times: 78452
Degree Decremented Times: 208269

L1 IP Table Write Accesses: 4810599
L1 IP Table Read Accesses: 2446646
L1 RST Write Accesses: 1836205
L1 RST Read Accesses: 3672410
L1 CSPT Write Accesses: 1836205
L1 CSPT Read Accesses: 2147069
L1 RR Filter Tag Write Accesses: 641872
L1 RR Filter Tag Read Accesses: 189769715
L1 IP Table Tag Write Accesses: 7358625
L1 IP Table Tag Read Accesses: 7358625
L1 RST Tag Write Accesses: 0
L1 RST Tag Read Accesses: 16767424
L1 RR Filter Write Accesses: 0
L1 RR Filter Read Accesses: 6157067
test: 289952
L2 IP Table Read Accesses: 3982242
L2 IP Table Write Accesses: 7022445
L2 IP Table Tag Read Accesses: 3606271
L2 IP Table Tag Write Accesses: 3606271

DRAM Statistics
 CHANNEL 0
 RQ ROW_BUFFER_HIT:     424561  ROW_BUFFER_MISS:     757223
 DBUS_CONGESTED:        654
 WQ ROW_BUFFER_HIT:     227782  ROW_BUFFER_MISS:     487138  FULL:      11851

 AVG_CONGESTED_CYCLE: 3
 All warmup complete: 2
Channel 0 Bank busy for read cycles: 0
Channel 0 Bank busy for write cycles: 0
Channel 0
Rank 0
0banks busy for read cycles: 23745889
0banks busy for write cycles: 53871
1banks busy for read cycles: 18910436
1banks busy for write cycles: 8404901
2banks busy for read cycles: 11464912
2banks busy for write cycles: 4797024
3banks busy for read cycles: 6359172
3banks busy for write cycles: 3273096
4banks busy for read cycles: 6231451
4banks busy for write cycles: 2578604
5banks busy for read cycles: 1418814
5banks busy for write cycles: 2172710
6banks busy for read cycles: 923578
6banks busy for write cycles: 1871662
7banks busy for read cycles: 940899
7banks busy for write cycles: 2286916
8banks busy for read cycles: 3914318
8banks busy for write cycles: 8546937

CPU 0 Branch Prediction Accuracy: 99.2833% MPKI: 1.20566 Average ROB Occupancy at Mispredict: 136.667
Branch types
NOT_BRANCH: 41588313 83.1766%
BRANCH_DIRECT_JUMP: 464500 0.929%
BRANCH_INDIRECT: 45704 0.091408%
BRANCH_CONDITIONAL: 6147404 12.2948%
BRANCH_DIRECT_CALL: 675450 1.3509%
BRANCH_INDIRECT_CALL: 201532 0.403064%
BRANCH_RETURN: 876985 1.75397%
BRANCH_OTHER: 0 0%

DRAM PAGES: 1048576
Allocated PAGES: 24906
