
*** ChampSim Multicore Out-of-Order Simulator ***

Warmup Instructions: 50000000
Simulation Instructions: 50000000
Number of CPUs: 1
LLC sets: 2048
LLC ways: 16
Off-chip DRAM Size: 4096 MB Channels: 1 Width: 64-bit Data Rate: 6400 MT/s
CPU 0 runs ../IPC-traces//server_012.champsimtrace.xz
.xz
NUM_OF_IPS_IN_CRITICAL_IP_TRAINING: 64
NUM_OF_CRITICAL_IP_TRAINING_TABLE_WAYS: 2
NUM_OF_CRITICAL_IP_TRAINING_TABLE_SETS: 32
WOBBLY_CRITICAL_IP_CACHE_SETS: 32
WOBBLY_CRITICAL_IP_CACHE_WAYS: 4
BTB has LRU replacement policy
ITLB has LRU replacement policy
DTLB has LRU replacement policy
STLB has LRU replacement policy
CPU 0 L1I next line prefetcher
L1I has LRU replacement policy
IP Table Entries: 256
L1D has LRU replacement policy
Initialize SRRIP state for L2C
Initialize DRRIP state for LLC
Heartbeat CPU 0 instructions: 10000002 cycles: 2760704 heartbeat IPC: 3.62227 cumulative IPC: 3.62227 (Simulation time: 0 hr 1 min 56 sec) 
Heartbeat CPU 0 instructions: 20000002 cycles: 5516262 heartbeat IPC: 3.62903 cumulative IPC: 3.62564 (Simulation time: 0 hr 3 min 48 sec) 
Heartbeat CPU 0 instructions: 30000003 cycles: 8270258 heartbeat IPC: 3.63109 cumulative IPC: 3.62746 (Simulation time: 0 hr 5 min 40 sec) 
Heartbeat CPU 0 instructions: 40000000 cycles: 11025776 heartbeat IPC: 3.62908 cumulative IPC: 3.62786 (Simulation time: 0 hr 7 min 34 sec) 
Heartbeat CPU 0 instructions: 50000003 cycles: 13781582 heartbeat IPC: 3.6287 cumulative IPC: 3.62803 (Simulation time: 0 hr 9 min 24 sec) 

Warmup complete CPU 0 instructions: 50000003 cycles: 13781582 (Simulation time: 0 hr 9 min 24 sec) 

Heartbeat CPU 0 instructions: 60000000 cycles: 27791464 heartbeat IPC: 0.713782 cumulative IPC: 0.713782 (Simulation time: 0 hr 11 min 47 sec) 
Heartbeat CPU 0 instructions: 70000000 cycles: 41732894 heartbeat IPC: 0.717287 cumulative IPC: 0.71553 (Simulation time: 0 hr 14 min 1 sec) 
Heartbeat CPU 0 instructions: 80000003 cycles: 55864426 heartbeat IPC: 0.707638 cumulative IPC: 0.71288 (Simulation time: 0 hr 16 min 18 sec) 
Heartbeat CPU 0 instructions: 90000000 cycles: 70130191 heartbeat IPC: 0.700979 cumulative IPC: 0.709867 (Simulation time: 0 hr 18 min 34 sec) 
Heartbeat CPU 0 instructions: 100000002 cycles: 84244730 heartbeat IPC: 0.708489 cumulative IPC: 0.709591 (Simulation time: 0 hr 20 min 37 sec) 
Finished CPU 0 instructions: 50000001 cycles: 70463151 cumulative IPC: 0.709591 (Simulation time: 0 hr 20 min 37 sec) 

ChampSim completed all CPUs

Region of Interest Statistics

CPU 0 cumulative IPC: 0.709591 instructions: 50000001 cycles: 70463151

CPU 0 Average Load ROB stall cycles: 1.88401e+07
CPU 0 Fraction of times ROB stalled by Loads: 38.5078
CPU 0 Percentage of Load stall cycles in Total stall cycles: 2.20851e+08
Issued all: 27359399
Issued LT all: 21217757
rob_not_full_when_issued_lt_all: 20273338
Issued LT one: 16855538
rob_not_full_when_issued_lt_one: 16055202
 Total stall cycles: 57255454
 Total load stall cycles: 126449263766336
CPU 0 NUM of IPS identified critical: 0
CPU 0 Num of Load IPs stalling ROB: 24077
Threshold modification factor: 0
Max PIST entries: 64
Min PIST entries: 0
Avg PIST entries: 32
Trouble in retire width: 0.890686
MaC = Marked as critical.
lt_50_percent_before_Mac: 0
gt_90_percent_before_Mac: 0
gt_75_percent_before_Mac: 0
gt_50_percent_before_Mac: 0
stall_proportion_bin_same_before_after: 0
stall_proportion_bin_lower_before_after: 0
stall_proportion_bin_upper_before_after: 0
average_stall_proportion_before: -nan
average_stall_proportion_after: -nan
Critical IP stalls, total frequency: 0
Non-critical IP stalls, total frequency: 2584531
Total Freq all stalling IPs: 2584531
stat_90_percent_critical_ip_stalls_freq: 2326104
stat_90_percent_non_critical_ip_stalls_freq: 258427
Critical_IP_ROB_Stalls_Bucket_0: 0
Non-critical_IP_ROB_Stalls_Bucket_0: 1319073
Critical_IP_ROB_Stalls_Bucket_1: 0
Non-critical_IP_ROB_Stalls_Bucket_1: 758577
Critical_IP_ROB_Stalls_Bucket_2: 0
Non-critical_IP_ROB_Stalls_Bucket_2: 277712
Critical_IP_ROB_Stalls_Bucket_3: 0
Non-critical_IP_ROB_Stalls_Bucket_3: 94487
Critical_IP_ROB_Stalls_Bucket_4: 0
Non-critical_IP_ROB_Stalls_Bucket_4: 51533
Critical_IP_ROB_Stalls_Bucket_5: 0
Non-critical_IP_ROB_Stalls_Bucket_5: 30053
Critical_IP_ROB_Stalls_Bucket_6: 0
Non-critical_IP_ROB_Stalls_Bucket_6: 53096
0 => IPs accounting for >50 percent of stalls, 1 => 55, 2 => 60, 3 => 65 and so on till 90.
percent50: 50.0243 num IPs:  290
percent55: 55.0269 num IPs: 428
percent60: 60.0053 num IPs: 597
percent65: 65.0071 num IPs: 813
percent70: 70.0044 num IPs: 1131
percent75: 75.0037 num IPs: 1637
percent80: 80.0006 num IPs: 2449
percent85: 85.0009 num IPs: 3670
percent90: 90.0013 num IPs: 5353
Critical_ROB_Stalls_Percent_0_Bucket_0: 621081
Non-critical_ROB_Stalls_Percent_0_Bucket_0: 697992
Critical_ROB_Stalls_Percent_0_Bucket_1: 424619
Non-critical_ROB_Stalls_Percent_0_Bucket_1: 333958
Critical_ROB_Stalls_Percent_0_Bucket_2: 156345
Non-critical_ROB_Stalls_Percent_0_Bucket_2: 121367
Critical_ROB_Stalls_Percent_0_Bucket_3: 36715
Non-critical_ROB_Stalls_Percent_0_Bucket_3: 57772
Critical_ROB_Stalls_Percent_0_Bucket_4: 18337
Non-critical_ROB_Stalls_Percent_0_Bucket_4: 33196
Critical_ROB_Stalls_Percent_0_Bucket_5: 11041
Non-critical_ROB_Stalls_Percent_0_Bucket_5: 19012
Critical_ROB_Stalls_Percent_0_Bucket_6: 24756
Non-critical_ROB_Stalls_Percent_0_Bucket_6: 28340
Critical_ROB_Stalls_Percent_1_Bucket_0: 673275
Non-critical_ROB_Stalls_Percent_1_Bucket_0: 645798
Critical_ROB_Stalls_Percent_1_Bucket_1: 467684
Non-critical_ROB_Stalls_Percent_1_Bucket_1: 290893
Critical_ROB_Stalls_Percent_1_Bucket_2: 172447
Non-critical_ROB_Stalls_Percent_1_Bucket_2: 105265
Critical_ROB_Stalls_Percent_1_Bucket_3: 42928
Non-critical_ROB_Stalls_Percent_1_Bucket_3: 51559
Critical_ROB_Stalls_Percent_1_Bucket_4: 22710
Non-critical_ROB_Stalls_Percent_1_Bucket_4: 28823
Critical_ROB_Stalls_Percent_1_Bucket_5: 14120
Non-critical_ROB_Stalls_Percent_1_Bucket_5: 15933
Critical_ROB_Stalls_Percent_1_Bucket_6: 29023
Non-critical_ROB_Stalls_Percent_1_Bucket_6: 24073
Critical_ROB_Stalls_Percent_2_Bucket_0: 726775
Non-critical_ROB_Stalls_Percent_2_Bucket_0: 592298
Critical_ROB_Stalls_Percent_2_Bucket_1: 514966
Non-critical_ROB_Stalls_Percent_2_Bucket_1: 243611
Critical_ROB_Stalls_Percent_2_Bucket_2: 185111
Non-critical_ROB_Stalls_Percent_2_Bucket_2: 92601
Critical_ROB_Stalls_Percent_2_Bucket_3: 48187
Non-critical_ROB_Stalls_Percent_2_Bucket_3: 46300
Critical_ROB_Stalls_Percent_2_Bucket_4: 26618
Non-critical_ROB_Stalls_Percent_2_Bucket_4: 24915
Critical_ROB_Stalls_Percent_2_Bucket_5: 17000
Non-critical_ROB_Stalls_Percent_2_Bucket_5: 13053
Critical_ROB_Stalls_Percent_2_Bucket_6: 32197
Non-critical_ROB_Stalls_Percent_2_Bucket_6: 20899
Critical_ROB_Stalls_Percent_3_Bucket_0: 795071
Non-critical_ROB_Stalls_Percent_3_Bucket_0: 524002
Critical_ROB_Stalls_Percent_3_Bucket_1: 557076
Non-critical_ROB_Stalls_Percent_3_Bucket_1: 201501
Critical_ROB_Stalls_Percent_3_Bucket_2: 194372
Non-critical_ROB_Stalls_Percent_3_Bucket_2: 83340
Critical_ROB_Stalls_Percent_3_Bucket_3: 52131
Non-critical_ROB_Stalls_Percent_3_Bucket_3: 42356
Critical_ROB_Stalls_Percent_3_Bucket_4: 28906
Non-critical_ROB_Stalls_Percent_3_Bucket_4: 22627
Critical_ROB_Stalls_Percent_3_Bucket_5: 18510
Non-critical_ROB_Stalls_Percent_3_Bucket_5: 11543
Critical_ROB_Stalls_Percent_3_Bucket_6: 34061
Non-critical_ROB_Stalls_Percent_3_Bucket_6: 19035
Critical_ROB_Stalls_Percent_4_Bucket_0: 870565
Non-critical_ROB_Stalls_Percent_4_Bucket_0: 448508
Critical_ROB_Stalls_Percent_4_Bucket_1: 588545
Non-critical_ROB_Stalls_Percent_4_Bucket_1: 170032
Critical_ROB_Stalls_Percent_4_Bucket_2: 205250
Non-critical_ROB_Stalls_Percent_4_Bucket_2: 72462
Critical_ROB_Stalls_Percent_4_Bucket_3: 57176
Non-critical_ROB_Stalls_Percent_4_Bucket_3: 37311
Critical_ROB_Stalls_Percent_4_Bucket_4: 31846
Non-critical_ROB_Stalls_Percent_4_Bucket_4: 19687
Critical_ROB_Stalls_Percent_4_Bucket_5: 20343
Non-critical_ROB_Stalls_Percent_4_Bucket_5: 9710
Critical_ROB_Stalls_Percent_4_Bucket_6: 35562
Non-critical_ROB_Stalls_Percent_4_Bucket_6: 17534
Critical_ROB_Stalls_Percent_5_Bucket_0: 936285
Non-critical_ROB_Stalls_Percent_5_Bucket_0: 382788
Critical_ROB_Stalls_Percent_5_Bucket_1: 622938
Non-critical_ROB_Stalls_Percent_5_Bucket_1: 135639
Critical_ROB_Stalls_Percent_5_Bucket_2: 220113
Non-critical_ROB_Stalls_Percent_5_Bucket_2: 57599
Critical_ROB_Stalls_Percent_5_Bucket_3: 64316
Non-critical_ROB_Stalls_Percent_5_Bucket_3: 30171
Critical_ROB_Stalls_Percent_5_Bucket_4: 35599
Non-critical_ROB_Stalls_Percent_5_Bucket_4: 15934
Critical_ROB_Stalls_Percent_5_Bucket_5: 21959
Non-critical_ROB_Stalls_Percent_5_Bucket_5: 8094
Critical_ROB_Stalls_Percent_5_Bucket_6: 37289
Non-critical_ROB_Stalls_Percent_5_Bucket_6: 15807
Critical_ROB_Stalls_Percent_6_Bucket_0: 1007887
Non-critical_ROB_Stalls_Percent_6_Bucket_0: 311186
Critical_ROB_Stalls_Percent_6_Bucket_1: 655259
Non-critical_ROB_Stalls_Percent_6_Bucket_1: 103318
Critical_ROB_Stalls_Percent_6_Bucket_2: 231367
Non-critical_ROB_Stalls_Percent_6_Bucket_2: 46345
Critical_ROB_Stalls_Percent_6_Bucket_3: 69887
Non-critical_ROB_Stalls_Percent_6_Bucket_3: 24600
Critical_ROB_Stalls_Percent_6_Bucket_4: 39348
Non-critical_ROB_Stalls_Percent_6_Bucket_4: 12185
Critical_ROB_Stalls_Percent_6_Bucket_5: 23783
Non-critical_ROB_Stalls_Percent_6_Bucket_5: 6270
Critical_ROB_Stalls_Percent_6_Bucket_6: 40117
Non-critical_ROB_Stalls_Percent_6_Bucket_6: 12979
Critical_ROB_Stalls_Percent_7_Bucket_0: 1081889
Non-critical_ROB_Stalls_Percent_7_Bucket_0: 237184
Critical_ROB_Stalls_Percent_7_Bucket_1: 685743
Non-critical_ROB_Stalls_Percent_7_Bucket_1: 72834
Critical_ROB_Stalls_Percent_7_Bucket_2: 242809
Non-critical_ROB_Stalls_Percent_7_Bucket_2: 34903
Critical_ROB_Stalls_Percent_7_Bucket_3: 75302
Non-critical_ROB_Stalls_Percent_7_Bucket_3: 19185
Critical_ROB_Stalls_Percent_7_Bucket_4: 42544
Non-critical_ROB_Stalls_Percent_7_Bucket_4: 8989
Critical_ROB_Stalls_Percent_7_Bucket_5: 25295
Non-critical_ROB_Stalls_Percent_7_Bucket_5: 4758
Critical_ROB_Stalls_Percent_7_Bucket_6: 43308
Non-critical_ROB_Stalls_Percent_7_Bucket_6: 9788
Critical_ROB_Stalls_Percent_8_Bucket_0: 1163618
Non-critical_ROB_Stalls_Percent_8_Bucket_0: 155455
Critical_ROB_Stalls_Percent_8_Bucket_1: 709101
Non-critical_ROB_Stalls_Percent_8_Bucket_1: 49476
Critical_ROB_Stalls_Percent_8_Bucket_2: 252719
Non-critical_ROB_Stalls_Percent_8_Bucket_2: 24993
Critical_ROB_Stalls_Percent_8_Bucket_3: 81385
Non-critical_ROB_Stalls_Percent_8_Bucket_3: 13102
Critical_ROB_Stalls_Percent_8_Bucket_4: 44839
Non-critical_ROB_Stalls_Percent_8_Bucket_4: 6694
Critical_ROB_Stalls_Percent_8_Bucket_5: 26368
Non-critical_ROB_Stalls_Percent_8_Bucket_5: 3685
Critical_ROB_Stalls_Percent_8_Bucket_6: 48074
Non-critical_ROB_Stalls_Percent_8_Bucket_6: 5022
Average ROB occupancy Load Stall Begin: 57.0676
Average ROB occupancy Load Stall End: 68.9782
Min ROB occupancy Load Stall Begin: 1
Max ROB occupancy Load Stall Begin: 352
Min ROB occupancy Load Stall End: 1
Max ROB occupancy Load Stall End: 352
Average ROB occupancy Critical Load Stall Begin: -nan
Average ROB occupancy Critical Load Stall End: -nan
Min ROB occupancy Critical Load Stall Begin: 400
Max ROB occupancy Critical Load Stall Begin: 0
Min ROB occupancy Critical Load Stall End: 400
Max ROB occupancy Critical Load Stall End: 0
 ROB Load Stall Begin Bucket Count 0: 1614097
 ROB Load Stall End Bucket Count 0: 1319073
 ROB Critical Load Stall Begin Bucket Count 0: 0
 ROB Critical Load Stall End Bucket Count 0: 0
 ROB Load Stall Begin Bucket Count 1: 576258
 ROB Load Stall End Bucket Count 1: 758577
 ROB Critical Load Stall Begin Bucket Count 1: 0
 ROB Critical Load Stall End Bucket Count 1: 0
 ROB Load Stall Begin Bucket Count 2: 212941
 ROB Load Stall End Bucket Count 2: 277712
 ROB Critical Load Stall Begin Bucket Count 2: 0
 ROB Critical Load Stall End Bucket Count 2: 0
 ROB Load Stall Begin Bucket Count 3: 69839
 ROB Load Stall End Bucket Count 3: 94487
 ROB Critical Load Stall Begin Bucket Count 3: 0
 ROB Critical Load Stall End Bucket Count 3: 0
 ROB Load Stall Begin Bucket Count 4: 41273
 ROB Load Stall End Bucket Count 4: 51533
 ROB Critical Load Stall Begin Bucket Count 4: 0
 ROB Critical Load Stall End Bucket Count 4: 0
 ROB Load Stall Begin Bucket Count 5: 25393
 ROB Load Stall End Bucket Count 5: 30053
 ROB Critical Load Stall Begin Bucket Count 5: 0
 ROB Critical Load Stall End Bucket Count 5: 0
 ROB Load Stall Begin Bucket Count 6: 44731
 ROB Load Stall End Bucket Count 6: 53096
 ROB Critical Load Stall Begin Bucket Count 6: 0
 ROB Critical Load Stall End Bucket Count 6: 0
PIST Tag Read Accesses: 2435428
PIST Read Accesses: 1217714
PIST Tag Write Accesses: 2435428
PIST Write Accesses: 1217714
Criticality detector called times: 2546117
Max global_stall_cycles_count: 3255739
Threshold Modified: 0 times, factor: 0
Sturdy critical IP cache stats: 
 Unused entries: 0
CIC Tag Read Accesses: 0
CIC Read Accesses: 0
CIC Tag Write Accesses: 0
CIC Write Accesses: 0
Wobbly critical IP cache stats: 
 Unused entries: 125
CIC Tag Read Accesses: 133145416
CIC Read Accesses: 0
CIC Tag Write Accesses: 3
CIC Write Accesses: 0
ITLB TOTAL     ACCESS:    8956139  HIT:    8707376  MISS:     248763  HIT %:    97.2224  MISS %:    2.77757   MPKI: 4.97526
ITLB LOAD TRANSLATION ACCESS:    7669973  HIT:    7599157  MISS:      70816  HIT %:    99.0767  MISS %:   0.923289   MPKI: 1.41632
ITLB TRANSLATION FROM L1D PREFETCHER ACCESS:    1286166  HIT:    1108219  MISS:     177947  HIT %:    86.1645  MISS %:    13.8355   MPKI: 3.55894
ITLB PREFETCH  REQUESTED:          0  ISSUED:          0  USEFUL:     145158  USELESS:      32793
ITLB USEFUL LOAD PREFETCHES:     145158 PREFETCH ISSUED TO LOWER LEVEL:          0  ACCURACY: inf
ITLB TIMELY PREFETCHES:     145158 LATE PREFETCHES: 988 DROPPED PREFETCHES: 11664
ITLB PREFETCHES SAME FILL-ORIGIN LEVEL: 0 DIFFERENT FILL-ORIGIN LEVEL: 0
ITLB AVERAGE MISS LATENCY: 202927 cycles
ITLB RQ	ACCESS:   12585982	FORWARD:          0	MERGED:    3583884	TO_CACHE:    9002098

DTLB TOTAL     ACCESS:    9354016  HIT:    8715179  MISS:     638837  HIT %:    93.1705  MISS %:    6.82955   MPKI: 12.7767
DTLB LOAD TRANSLATION ACCESS:    9354016  HIT:    8715179  MISS:     638837  HIT %:    93.1705  MISS %:    6.82955   MPKI: 12.7767
DTLB PREFETCH  REQUESTED:          0  ISSUED:          0  USEFUL:          0  USELESS:          0
DTLB USEFUL LOAD PREFETCHES:          0 PREFETCH ISSUED TO LOWER LEVEL:          0  ACCURACY: -nan
DTLB TIMELY PREFETCHES:          0 LATE PREFETCHES: 0 DROPPED PREFETCHES: 0
DTLB PREFETCHES SAME FILL-ORIGIN LEVEL: 0 DIFFERENT FILL-ORIGIN LEVEL: 0
DTLB AVERAGE MISS LATENCY: 15.138 cycles
DTLB RQ	ACCESS:   11882134	FORWARD:          0	MERGED:    2488027	TO_CACHE:    9394107

STLB TOTAL     ACCESS:     890629  HIT:     769666  MISS:     120963  HIT %:    86.4183  MISS %:    13.5817   MPKI: 2.41926
STLB LOAD TRANSLATION ACCESS:     708665  HIT:     616347  MISS:      92318  HIT %:     86.973  MISS %:     13.027   MPKI: 1.84636
STLB TRANSLATION FROM L1D PREFETCHER ACCESS:     181964  HIT:     153319  MISS:      28645  HIT %:    84.2579  MISS %:    15.7421   MPKI: 0.5729
STLB PREFETCH  REQUESTED:          0  ISSUED:          0  USEFUL:      16171  USELESS:      12449
STLB USEFUL LOAD PREFETCHES:      16171 PREFETCH ISSUED TO LOWER LEVEL:          0  ACCURACY: inf
STLB TIMELY PREFETCHES:      16171 LATE PREFETCHES: 0 DROPPED PREFETCHES: 11664
STLB PREFETCHES SAME FILL-ORIGIN LEVEL: 0 DIFFERENT FILL-ORIGIN LEVEL: 0
STLB AVERAGE MISS LATENCY: 45.809 cycles
STLB RQ	ACCESS:     905867	FORWARD:          0	MERGED:       3574	TO_CACHE:     902293

STLB Hit, L1D data hit: 0
STLB Hit, L2C data hit: 0
STLB Hit, LLC data hit: 0
STLB Hit, LLC data miss: 0
STLB STLB hints to L2: 0
L1D TOTAL     ACCESS:   11724187  HIT:   11085135  MISS:     639052  HIT %:    94.5493  MISS %:    5.45071   MPKI: 12.781
L1D LOAD      ACCESS:    6740806  HIT:    6198152  MISS:     542654  HIT %:    91.9497  MISS %:    8.05028   MPKI: 10.8531
L1D RFO       ACCESS:    4976801  HIT:    4886222  MISS:      90579  HIT %:      98.18  MISS %:    1.82002   MPKI: 1.81158
L1D PREFETCH  ACCESS:       6580  HIT:        761  MISS:       5819  HIT %:    11.5653  MISS %:    88.4347   MPKI: 0.11638
L1D PREFETCH  REQUESTED:      13206  ISSUED:      13206  USEFUL:       3145  USELESS:       2668
L1D USEFUL LOAD PREFETCHES:       3145 PREFETCH ISSUED TO LOWER LEVEL:       5842  ACCURACY: 53.8343
L1D TIMELY PREFETCHES:       3145 LATE PREFETCHES: 23 DROPPED PREFETCHES: 0
L1D PREFETCHES SAME FILL-ORIGIN LEVEL: 5842 DIFFERENT FILL-ORIGIN LEVEL: 0
L1D AVERAGE MISS LATENCY: 1754.02 cycles
L1D RQ	ACCESS:   10397214	FORWARD:          0	MERGED:    3530387	TO_CACHE:    6779724
L1D WQ	ACCESS:    5225435	FORWARD:      87103	MERGED:     123025	TO_CACHE:    5102410
L1D PQ	ACCESS:       6603	FORWARD:          0	MERGED:          0	TO_CACHE:       6603

L1D UNIQUE REGIONS ACCESSED: 0
L1D REGIONS CONFLICTS: 0
L1D Cross Page Prefetch Requests: 0
L1D Same Page Prefetch Requests: 6603
L1D ROI Sum of L1D PQ occupancy: 90500
L1D PREFETCHES PUSHED FROM L2C: 0
L1I TOTAL     ACCESS:   12414236  HIT:   10329604  MISS:    2084632  HIT %:    83.2077  MISS %:    16.7923   MPKI: 41.6926
L1I LOAD      ACCESS:    9417966  HIT:    9161623  MISS:     256343  HIT %:    97.2781  MISS %:    2.72185   MPKI: 5.12686
L1I PREFETCH  ACCESS:    2996270  HIT:    1167981  MISS:    1828289  HIT %:    38.9812  MISS %:    61.0188   MPKI: 36.5658
L1I PREFETCH  REQUESTED:    3259143  ISSUED:    3250300  USEFUL:    1206433  USELESS:     621902
L1I USEFUL LOAD PREFETCHES:    1206433 PREFETCH ISSUED TO LOWER LEVEL:    1862800  ACCURACY: 64.7645
L1I TIMELY PREFETCHES:    1206433 LATE PREFETCHES: 34509 DROPPED PREFETCHES: 34558
L1I PREFETCHES SAME FILL-ORIGIN LEVEL: 1862800 DIFFERENT FILL-ORIGIN LEVEL: 0
L1I AVERAGE MISS LATENCY: 813401 cycles
L1I RQ	ACCESS:   13688323	FORWARD:          0	MERGED:    4243086	TO_CACHE:    9445237
L1I PQ	ACCESS:    3250300	FORWARD:          0	MERGED:     109555	TO_CACHE:    3140745

BTB TOTAL     ACCESS:    4512073  HIT:    3722868  MISS:     789205  HIT %:     82.509  MISS %:     17.491   MPKI: 15.7841
BTB BRANCH_DIRECT_JUMP	ACCESS:     469808  HIT:     407044  MISS:      62764
BTB BRANCH_INDIRECT	ACCESS:     153732  HIT:     119846  MISS:      33886
BTB BRANCH_CONDITIONAL	ACCESS:    2157420  HIT:    1900788  MISS:     256632
BTB BRANCH_DIRECT_CALL	ACCESS:     679877  HIT:     561787  MISS:     118090
BTB BRANCH_INDIRECT_CALL	ACCESS:     168745  HIT:     156218  MISS:      12527
BTB BRANCH_RETURN	ACCESS:     882491  HIT:     577185  MISS:     305306
BTB BRANCH_OTHER ACCESS:          0  HIT:          0  MISS:          0

L2C TOTAL     ACCESS:    3152297  HIT:    1970512  MISS:    1181785  HIT %:    62.5104  MISS %:    37.4896   MPKI: 23.6357
L2C LOAD      ACCESS:     764444  HIT:     359844  MISS:     404600  HIT %:    47.0726  MISS %:    52.9274   MPKI: 8.092
L2C DATA LOAD MPKI: 6.26876
L2C INSTRUCTION LOAD MPKI: 1.82324
L2C RFO       ACCESS:      90573  HIT:      40998  MISS:      49575  HIT %:    45.2651  MISS %:    54.7349   MPKI: 0.9915
L2C PREFETCH  ACCESS:    1868640  HIT:    1225627  MISS:     643013  HIT %:    65.5893  MISS %:    34.4107   MPKI: 12.8603
L2C DATA PREFETCH MPKI: 0.10084
L2C INSTRUCTION PREFETCH MPKI: 12.7594
L2C WRITEBACK ACCESS:     254807  HIT:     233643  MISS:      21164  HIT %:    91.6941  MISS %:    8.30589   MPKI: 0.42328
L2C LOAD TRANSLATION ACCESS:     121978  HIT:      68886  MISS:      53092  HIT %:    56.4741  MISS %:    43.5259   MPKI: 1.06184
L2C TRANSLATION FROM L1D PREFETCHER ACCESS:      51855  HIT:      41514  MISS:      10341  HIT %:    80.0579  MISS %:    19.9421   MPKI: 0.20682
L2C PREFETCH  REQUESTED:          0  ISSUED:          0  USEFUL:      17921  USELESS:     635706
L2C USEFUL LOAD PREFETCHES:      17921 PREFETCH ISSUED TO LOWER LEVEL:     643014  ACCURACY: 2.78703
L2C TIMELY PREFETCHES:      17921 LATE PREFETCHES: 0 DROPPED PREFETCHES: 0
L2C PREFETCHES SAME FILL-ORIGIN LEVEL: 0 DIFFERENT FILL-ORIGIN LEVEL: 0
L2C AVERAGE MISS LATENCY: 38.7277 cycles
L2C RQ	ACCESS:    1028877	FORWARD:          0	MERGED:          0	TO_CACHE:    1028850
L2C WQ	ACCESS:     254807	FORWARD:         27	MERGED:          0	TO_CACHE:     254807
L2C PQ	ACCESS:    1868642	FORWARD:          0	MERGED:          0	TO_CACHE:    1868642

L2C Instructions Evicting Data 238988
L2C Translations Evicting Data 20568
L2C Data Evicting Data 122692
L2C Instructions Evicting Instructions 450390
L2C Translations Evicting Instructions 40011
L2C Data Evicting Instructions 225677
L2C Instructions Evicting Translations 39755
L2C Translations Evicting Translations 2854
L2C Data Evicting Translations 19686
L2C Dense regions hint from L2: 0
PSCL5 TOTAL     ACCESS:     132627  HIT:     132627  MISS:          0  HIT %:        100  MISS %:          0   MPKI: 0
PSCL5 LOAD TRANSLATION ACCESS:      92318  HIT:      92318  MISS:          0  HIT %:        100  MISS %:          0   MPKI: 0
PSCL5 TRANSLATION FROM L1D PREFETCHER ACCESS:      40309  HIT:      40309  MISS:          0  HIT %:        100  MISS %:          0   MPKI: 0
PSCL5 PREFETCH  REQUESTED:          0  ISSUED:          0  USEFUL:          0  USELESS:          0
PSCL5 USEFUL LOAD PREFETCHES:          0 PREFETCH ISSUED TO LOWER LEVEL:          0  ACCURACY: -nan
PSCL5 TIMELY PREFETCHES:          0 LATE PREFETCHES: 0 DROPPED PREFETCHES: 0
PSCL5 PREFETCHES SAME FILL-ORIGIN LEVEL: 0 DIFFERENT FILL-ORIGIN LEVEL: 0

PSCL4 TOTAL     ACCESS:     121888  HIT:     121548  MISS:        340  HIT %:    99.7211  MISS %:   0.278945   MPKI: 0.0068
PSCL4 LOAD TRANSLATION ACCESS:      85273  HIT:      84933  MISS:        340  HIT %:    99.6013  MISS %:   0.398719   MPKI: 0.0068
PSCL4 TRANSLATION FROM L1D PREFETCHER ACCESS:      36615  HIT:      36615  MISS:          0  HIT %:        100  MISS %:          0   MPKI: 0
PSCL4 PREFETCH  REQUESTED:          0  ISSUED:          0  USEFUL:          0  USELESS:          0
PSCL4 USEFUL LOAD PREFETCHES:          0 PREFETCH ISSUED TO LOWER LEVEL:          0  ACCURACY: -nan
PSCL4 TIMELY PREFETCHES:          0 LATE PREFETCHES: 0 DROPPED PREFETCHES: 0
PSCL4 PREFETCHES SAME FILL-ORIGIN LEVEL: 0 DIFFERENT FILL-ORIGIN LEVEL: 0

PSCL3 TOTAL     ACCESS:     130511  HIT:     129502  MISS:       1009  HIT %:    99.2269  MISS %:   0.773115   MPKI: 0.02018
PSCL3 LOAD TRANSLATION ACCESS:      91912  HIT:      90903  MISS:       1009  HIT %:    98.9022  MISS %:    1.09779   MPKI: 0.02018
PSCL3 TRANSLATION FROM L1D PREFETCHER ACCESS:      38599  HIT:      38599  MISS:          0  HIT %:        100  MISS %:          0   MPKI: 0
PSCL3 PREFETCH  REQUESTED:          0  ISSUED:          0  USEFUL:          0  USELESS:          0
PSCL3 USEFUL LOAD PREFETCHES:          0 PREFETCH ISSUED TO LOWER LEVEL:          0  ACCURACY: -nan
PSCL3 TIMELY PREFETCHES:          0 LATE PREFETCHES: 0 DROPPED PREFETCHES: 0
PSCL3 PREFETCHES SAME FILL-ORIGIN LEVEL: 0 DIFFERENT FILL-ORIGIN LEVEL: 0

PSCL2 TOTAL     ACCESS:     125466  HIT:      93352  MISS:      32114  HIT %:    74.4042  MISS %:    25.5958   MPKI: 0.64228
PSCL2 LOAD TRANSLATION ACCESS:      95863  HIT:      63749  MISS:      32114  HIT %:    66.5001  MISS %:    33.4999   MPKI: 0.64228
PSCL2 TRANSLATION FROM L1D PREFETCHER ACCESS:      29603  HIT:      29603  MISS:          0  HIT %:        100  MISS %:          0   MPKI: 0
PSCL2 PREFETCH  REQUESTED:          0  ISSUED:          0  USEFUL:          0  USELESS:          0
PSCL2 USEFUL LOAD PREFETCHES:          0 PREFETCH ISSUED TO LOWER LEVEL:          0  ACCURACY: -nan
PSCL2 TIMELY PREFETCHES:          0 LATE PREFETCHES: 0 DROPPED PREFETCHES: 0
PSCL2 PREFETCHES SAME FILL-ORIGIN LEVEL: 0 DIFFERENT FILL-ORIGIN LEVEL: 0

LLC TOTAL     ACCESS:    1293389  HIT:    1224060  MISS:      69329  HIT %:    94.6397  MISS %:    5.36026   MPKI: 1.38658
LLC LOAD      ACCESS:     404594  HIT:     353623  MISS:      50971  HIT %:    87.4019  MISS %:    12.5981   MPKI: 1.01942
LLC RFO       ACCESS:      49575  HIT:      37835  MISS:      11740  HIT %:    76.3187  MISS %:    23.6813   MPKI: 0.2348
LLC PREFETCH  ACCESS:     643013  HIT:     638022  MISS:       4991  HIT %:    99.2238  MISS %:    0.77619   MPKI: 0.09982
LLC WRITEBACK ACCESS:     132774  HIT:     132238  MISS:        536  HIT %:    99.5963  MISS %:   0.403693   MPKI: 0.01072
LLC LOAD TRANSLATION ACCESS:      53092  HIT:      52018  MISS:       1074  HIT %:    97.9771  MISS %:     2.0229   MPKI: 0.02148
LLC TRANSLATION FROM L1D PREFETCHER ACCESS:      10341  HIT:      10324  MISS:         17  HIT %:    99.8356  MISS %:   0.164394   MPKI: 0.00034
LLC PREFETCH  REQUESTED:          0  ISSUED:          0  USEFUL:        612  USELESS:       4207
LLC USEFUL LOAD PREFETCHES:        612 PREFETCH ISSUED TO LOWER LEVEL:       4991  ACCURACY: 12.2621
LLC TIMELY PREFETCHES:        612 LATE PREFETCHES: 0 DROPPED PREFETCHES: 0
LLC PREFETCHES SAME FILL-ORIGIN LEVEL: 0 DIFFERENT FILL-ORIGIN LEVEL: 0
LLC AVERAGE MISS LATENCY: 156.98 cycles
LLC RQ	ACCESS:     517608	FORWARD:          0	MERGED:          0	TO_CACHE:     517602
LLC WQ	ACCESS:     132774	FORWARD:          6	MERGED:          0	TO_CACHE:     132774
LLC PQ	ACCESS:     643014	FORWARD:          0	MERGED:          0	TO_CACHE:     643014

LLC Dense regions hint to LLC: 0

RAW hits: 1037414
Loads Generated: 11434630
Loads sent to L1D: 10397214
Stores Generated: 5225429
Stores sent to L1D: 5225435
Major fault: 0 Minor fault: 5918
Allocated PAGES: 5918
I-Shadow cache 408 bytes
Touched + WorthPF tables 6144 bytes 
MMA filter 174 bytes 
FNL filter 272 bytes 
TOTAL PREFETCHER STORAGE SIZE: 25174 bytes
CPU 0 L1I next line prefetcher final stats

stream: 
stream:times selected: 3203
stream:pref_filled: 5631
stream:pref_useful: 3094
stream:pref_late: 22
stream:misses: 32
stream:misses_by_poll: 0

CS: 
CS:times selected: 2097
CS:pref_filled: 9
CS:pref_useful: 9
CS:pref_late: 0
CS:misses: 6
CS:misses_by_poll: 0

CPLX: 
CPLX:times selected: 973
CPLX:pref_filled: 179
CPLX:pref_useful: 42
CPLX:pref_late: 1
CPLX:misses: 68
CPLX:misses_by_poll: 0

NL_L1: 
NL:times selected: 0
NL:pref_filled: 0
NL:pref_useful: 0
NL:pref_late: 0
NL:misses: 0
NL:misses_by_poll: 0

total selections: 6273
total_filled: 5819
total_useful: 3145
total_late: 23
total_polluted: 0
total_misses_after_warmup: 108
conflicts: 3
Degree Incremented Times: 0
Degree Decremented Times: 0

L1 IP Table Write Accesses: 41650
L1 IP Table Read Accesses: 41647
L1 RST Write Accesses: 3207
L1 RST Read Accesses: 6405
L1 CSPT Write Accesses: 3207
L1 CSPT Read Accesses: 5644
L1 RR Filter Tag Write Accesses: 6603
L1 RR Filter Tag Read Accesses: 749352
L1 IP Table Tag Write Accesses: 41650
L1 IP Table Tag Read Accesses: 41650
L1 RST Tag Write Accesses: 56
L1 RST Tag Read Accesses: 43742
L1 RR Filter Write Accesses: 0
L1 RR Filter Read Accesses: 25408
test: 636

DRAM Statistics
 CHANNEL 0
 RQ ROW_BUFFER_HIT:       9729  ROW_BUFFER_MISS:      59064
 DBUS_CONGESTED:         36
 WQ ROW_BUFFER_HIT:       9873  ROW_BUFFER_MISS:      44246  FULL:          0

 AVG_CONGESTED_CYCLE: 4
 All warmup complete: 2
Channel 0 Bank busy for read cycles: 0
Channel 0 Bank busy for write cycles: 0
Channel 0
Rank 0
0banks busy for read cycles: 57973348
0banks busy for write cycles: 25376
1banks busy for read cycles: 5580776
1banks busy for write cycles: 3393667
2banks busy for read cycles: 1111012
2banks busy for write cycles: 1082197
3banks busy for read cycles: 215198
3banks busy for write cycles: 339925
4banks busy for read cycles: 73641
4banks busy for write cycles: 165190
5banks busy for read cycles: 38810
5banks busy for write cycles: 108944
6banks busy for read cycles: 36916
6banks busy for write cycles: 88027
7banks busy for read cycles: 14461
7banks busy for write cycles: 86542
8banks busy for read cycles: 10894
8banks busy for write cycles: 118228

CPU 0 Branch Prediction Accuracy: 99.4607% MPKI: 1.00288 Average ROB Occupancy at Mispredict: 62.6756
Branch types
NOT_BRANCH: 40700943 81.4019%
BRANCH_DIRECT_JUMP: 469808 0.939616%
BRANCH_INDIRECT: 153732 0.307464%
BRANCH_CONDITIONAL: 6944056 13.8881%
BRANCH_DIRECT_CALL: 679877 1.35975%
BRANCH_INDIRECT_CALL: 168745 0.33749%
BRANCH_RETURN: 882491 1.76498%
BRANCH_OTHER: 0 0%

DRAM PAGES: 1048576
Allocated PAGES: 5918
