Initialize SIGNATURE TABLE
ST_SET: 1
ST_WAY: 16
ST_TAG_BIT: 16
ST_TAG_MASK: ffff

Initialize PATTERN TABLE
PT_SET: 16
PT_WAY: 4
SIG_DELTA_BIT: 7
C_SIG_BIT: 4
C_DELTA_BIT: 4

Initialize PREFETCH FILTER
FILTER_SET: 1024

Initialize PERCEPTRON
PERC_ENTRIES: 64
PERC_FEATURES: 9

*** ChampSim Multicore Out-of-Order Simulator ***

Warmup Instructions: 50000000
Simulation Instructions: 50000000
Number of CPUs: 1
LLC sets: 2048
LLC ways: 16
Off-chip DRAM Size: 4096 MB Channels: 1 Width: 64-bit Data Rate: 6400 MT/s
CPU 0 runs ../IPC-traces//server_027.champsimtrace.xz
.xz
NUM_OF_IPS_IN_CRITICAL_IP_TRAINING: 64
NUM_OF_CRITICAL_IP_TRAINING_TABLE_WAYS: 2
NUM_OF_CRITICAL_IP_TRAINING_TABLE_SETS: 32
WOBBLY_CRITICAL_IP_CACHE_SETS: 32
WOBBLY_CRITICAL_IP_CACHE_WAYS: 4
BTB has LRU replacement policy
ITLB has LRU replacement policy
DTLB has LRU replacement policy
STLB has LRU replacement policy
CPU 0 L1I next line prefetcher
L1I has LRU replacement policy
L1D has LRU replacement policy
Initialize SRRIP state for L2C
Initialize DRRIP state for LLC
Heartbeat CPU 0 instructions: 10000000 cycles: 2886009 heartbeat IPC: 3.46499 cumulative IPC: 3.46499 (Simulation time: 0 hr 3 min 25 sec) 
Heartbeat CPU 0 instructions: 20000001 cycles: 5769242 heartbeat IPC: 3.46833 cumulative IPC: 3.46666 (Simulation time: 0 hr 6 min 14 sec) 
Heartbeat CPU 0 instructions: 30000002 cycles: 8652115 heartbeat IPC: 3.46876 cumulative IPC: 3.46736 (Simulation time: 0 hr 9 min 1 sec) 
Heartbeat CPU 0 instructions: 40000000 cycles: 11535921 heartbeat IPC: 3.46764 cumulative IPC: 3.46743 (Simulation time: 0 hr 11 min 21 sec) 
Heartbeat CPU 0 instructions: 50000001 cycles: 14417952 heartbeat IPC: 3.46978 cumulative IPC: 3.4679 (Simulation time: 0 hr 13 min 24 sec) 

Warmup complete CPU 0 instructions: 50000001 cycles: 14417952 (Simulation time: 0 hr 13 min 24 sec) 

Heartbeat CPU 0 instructions: 60000002 cycles: 30996664 heartbeat IPC: 0.603183 cumulative IPC: 0.603183 (Simulation time: 0 hr 15 min 49 sec) 
Heartbeat CPU 0 instructions: 70000001 cycles: 47545883 heartbeat IPC: 0.604258 cumulative IPC: 0.60372 (Simulation time: 0 hr 18 min 13 sec) 
Heartbeat CPU 0 instructions: 80000002 cycles: 64030189 heartbeat IPC: 0.606638 cumulative IPC: 0.60469 (Simulation time: 0 hr 20 min 36 sec) 
Heartbeat CPU 0 instructions: 90000000 cycles: 80637353 heartbeat IPC: 0.60215 cumulative IPC: 0.604053 (Simulation time: 0 hr 22 min 58 sec) 
Heartbeat CPU 0 instructions: 100000002 cycles: 97089462 heartbeat IPC: 0.607825 cumulative IPC: 0.604803 (Simulation time: 0 hr 26 min 8 sec) 
Finished CPU 0 instructions: 50000001 cycles: 82671510 cumulative IPC: 0.604803 (Simulation time: 0 hr 26 min 8 sec) 

ChampSim completed all CPUs

Region of Interest Statistics

CPU 0 cumulative IPC: 0.604803 instructions: 50000001 cycles: 82671510

CPU 0 Average Load ROB stall cycles: 2.00339e+07
CPU 0 Fraction of times ROB stalled by Loads: 35.9013
CPU 0 Percentage of Load stall cycles in Total stall cycles: 2.83455e+08
Issued all: 28152658
Issued LT all: 22367034
rob_not_full_when_issued_lt_all: 22040412
Issued LT one: 17338972
rob_not_full_when_issued_lt_one: 17056613
 Total stall cycles: 69183560
 Total load stall cycles: 196104168543846
CPU 0 NUM of IPS identified critical: 0
CPU 0 Num of Load IPs stalling ROB: 12346
Threshold modification factor: 0
Max PIST entries: 64
Min PIST entries: 0
Avg PIST entries: 32
Trouble in retire width: 0.906932
MaC = Marked as critical.
lt_50_percent_before_Mac: 0
gt_90_percent_before_Mac: 0
gt_75_percent_before_Mac: 0
gt_50_percent_before_Mac: 0
stall_proportion_bin_same_before_after: 0
stall_proportion_bin_lower_before_after: 0
stall_proportion_bin_upper_before_after: 0
average_stall_proportion_before: -nan
average_stall_proportion_after: -nan
Critical IP stalls, total frequency: 0
Non-critical IP stalls, total frequency: 3514236
Total Freq all stalling IPs: 3514236
stat_90_percent_critical_ip_stalls_freq: 3162855
stat_90_percent_non_critical_ip_stalls_freq: 351381
Critical_IP_ROB_Stalls_Bucket_0: 0
Non-critical_IP_ROB_Stalls_Bucket_0: 2481814
Critical_IP_ROB_Stalls_Bucket_1: 0
Non-critical_IP_ROB_Stalls_Bucket_1: 689615
Critical_IP_ROB_Stalls_Bucket_2: 0
Non-critical_IP_ROB_Stalls_Bucket_2: 230692
Critical_IP_ROB_Stalls_Bucket_3: 0
Non-critical_IP_ROB_Stalls_Bucket_3: 58447
Critical_IP_ROB_Stalls_Bucket_4: 0
Non-critical_IP_ROB_Stalls_Bucket_4: 21541
Critical_IP_ROB_Stalls_Bucket_5: 0
Non-critical_IP_ROB_Stalls_Bucket_5: 11750
Critical_IP_ROB_Stalls_Bucket_6: 0
Non-critical_IP_ROB_Stalls_Bucket_6: 20377
0 => IPs accounting for >50 percent of stalls, 1 => 55, 2 => 60, 3 => 65 and so on till 90.
percent50: 50.0071 num IPs:  557
percent55: 55.0149 num IPs: 779
percent60: 60.0146 num IPs: 1020
percent65: 65.0161 num IPs: 1266
percent70: 70.0084 num IPs: 1549
percent75: 75.0045 num IPs: 1907
percent80: 80.0045 num IPs: 2289
percent85: 85.0069 num IPs: 2819
percent90: 90.0006 num IPs: 3515
Critical_ROB_Stalls_Percent_0_Bucket_0: 1007584
Non-critical_ROB_Stalls_Percent_0_Bucket_0: 1474230
Critical_ROB_Stalls_Percent_0_Bucket_1: 468338
Non-critical_ROB_Stalls_Percent_0_Bucket_1: 221277
Critical_ROB_Stalls_Percent_0_Bucket_2: 180882
Non-critical_ROB_Stalls_Percent_0_Bucket_2: 49810
Critical_ROB_Stalls_Percent_0_Bucket_3: 52223
Non-critical_ROB_Stalls_Percent_0_Bucket_3: 6224
Critical_ROB_Stalls_Percent_0_Bucket_4: 19268
Non-critical_ROB_Stalls_Percent_0_Bucket_4: 2273
Critical_ROB_Stalls_Percent_0_Bucket_5: 10593
Non-critical_ROB_Stalls_Percent_0_Bucket_5: 1157
Critical_ROB_Stalls_Percent_0_Bucket_6: 18478
Non-critical_ROB_Stalls_Percent_0_Bucket_6: 1899
Critical_ROB_Stalls_Percent_1_Bucket_0: 1143026
Non-critical_ROB_Stalls_Percent_1_Bucket_0: 1338788
Critical_ROB_Stalls_Percent_1_Bucket_1: 499041
Non-critical_ROB_Stalls_Percent_1_Bucket_1: 190574
Critical_ROB_Stalls_Percent_1_Bucket_2: 189112
Non-critical_ROB_Stalls_Percent_1_Bucket_2: 41580
Critical_ROB_Stalls_Percent_1_Bucket_3: 53309
Non-critical_ROB_Stalls_Percent_1_Bucket_3: 5138
Critical_ROB_Stalls_Percent_1_Bucket_4: 19651
Non-critical_ROB_Stalls_Percent_1_Bucket_4: 1890
Critical_ROB_Stalls_Percent_1_Bucket_5: 10667
Non-critical_ROB_Stalls_Percent_1_Bucket_5: 1083
Critical_ROB_Stalls_Percent_1_Bucket_6: 18553
Non-critical_ROB_Stalls_Percent_1_Bucket_6: 1824
Critical_ROB_Stalls_Percent_2_Bucket_0: 1265418
Non-critical_ROB_Stalls_Percent_2_Bucket_0: 1216396
Critical_ROB_Stalls_Percent_2_Bucket_1: 541779
Non-critical_ROB_Stalls_Percent_2_Bucket_1: 147836
Critical_ROB_Stalls_Percent_2_Bucket_2: 199090
Non-critical_ROB_Stalls_Percent_2_Bucket_2: 31602
Critical_ROB_Stalls_Percent_2_Bucket_3: 53893
Non-critical_ROB_Stalls_Percent_2_Bucket_3: 4554
Critical_ROB_Stalls_Percent_2_Bucket_4: 19659
Non-critical_ROB_Stalls_Percent_2_Bucket_4: 1882
Critical_ROB_Stalls_Percent_2_Bucket_5: 10668
Non-critical_ROB_Stalls_Percent_2_Bucket_5: 1082
Critical_ROB_Stalls_Percent_2_Bucket_6: 18553
Non-critical_ROB_Stalls_Percent_2_Bucket_6: 1824
Critical_ROB_Stalls_Percent_3_Bucket_0: 1411947
Non-critical_ROB_Stalls_Percent_3_Bucket_0: 1069867
Critical_ROB_Stalls_Percent_3_Bucket_1: 567112
Non-critical_ROB_Stalls_Percent_3_Bucket_1: 122503
Critical_ROB_Stalls_Percent_3_Bucket_2: 202374
Non-critical_ROB_Stalls_Percent_3_Bucket_2: 28318
Critical_ROB_Stalls_Percent_3_Bucket_3: 54250
Non-critical_ROB_Stalls_Percent_3_Bucket_3: 4197
Critical_ROB_Stalls_Percent_3_Bucket_4: 19913
Non-critical_ROB_Stalls_Percent_3_Bucket_4: 1628
Critical_ROB_Stalls_Percent_3_Bucket_5: 10671
Non-critical_ROB_Stalls_Percent_3_Bucket_5: 1079
Critical_ROB_Stalls_Percent_3_Bucket_6: 18553
Non-critical_ROB_Stalls_Percent_3_Bucket_6: 1824
Critical_ROB_Stalls_Percent_4_Bucket_0: 1556142
Non-critical_ROB_Stalls_Percent_4_Bucket_0: 925672
Critical_ROB_Stalls_Percent_4_Bucket_1: 591041
Non-critical_ROB_Stalls_Percent_4_Bucket_1: 98574
Critical_ROB_Stalls_Percent_4_Bucket_2: 208030
Non-critical_ROB_Stalls_Percent_4_Bucket_2: 22662
Critical_ROB_Stalls_Percent_4_Bucket_3: 55044
Non-critical_ROB_Stalls_Percent_4_Bucket_3: 3403
Critical_ROB_Stalls_Percent_4_Bucket_4: 20178
Non-critical_ROB_Stalls_Percent_4_Bucket_4: 1363
Critical_ROB_Stalls_Percent_4_Bucket_5: 10785
Non-critical_ROB_Stalls_Percent_4_Bucket_5: 965
Critical_ROB_Stalls_Percent_4_Bucket_6: 19042
Non-critical_ROB_Stalls_Percent_4_Bucket_6: 1335
Critical_ROB_Stalls_Percent_5_Bucket_0: 1699675
Non-critical_ROB_Stalls_Percent_5_Bucket_0: 782139
Critical_ROB_Stalls_Percent_5_Bucket_1: 615315
Non-critical_ROB_Stalls_Percent_5_Bucket_1: 74300
Critical_ROB_Stalls_Percent_5_Bucket_2: 215222
Non-critical_ROB_Stalls_Percent_5_Bucket_2: 15470
Critical_ROB_Stalls_Percent_5_Bucket_3: 55476
Non-critical_ROB_Stalls_Percent_5_Bucket_3: 2971
Critical_ROB_Stalls_Percent_5_Bucket_4: 20269
Non-critical_ROB_Stalls_Percent_5_Bucket_4: 1272
Critical_ROB_Stalls_Percent_5_Bucket_5: 10819
Non-critical_ROB_Stalls_Percent_5_Bucket_5: 931
Critical_ROB_Stalls_Percent_5_Bucket_6: 19051
Non-critical_ROB_Stalls_Percent_5_Bucket_6: 1326
Critical_ROB_Stalls_Percent_6_Bucket_0: 1855566
Non-critical_ROB_Stalls_Percent_6_Bucket_0: 626248
Critical_ROB_Stalls_Percent_6_Bucket_1: 630695
Non-critical_ROB_Stalls_Percent_6_Bucket_1: 58920
Critical_ROB_Stalls_Percent_6_Bucket_2: 219284
Non-critical_ROB_Stalls_Percent_6_Bucket_2: 11408
Critical_ROB_Stalls_Percent_6_Bucket_3: 55573
Non-critical_ROB_Stalls_Percent_6_Bucket_3: 2874
Critical_ROB_Stalls_Percent_6_Bucket_4: 20291
Non-critical_ROB_Stalls_Percent_6_Bucket_4: 1250
Critical_ROB_Stalls_Percent_6_Bucket_5: 11007
Non-critical_ROB_Stalls_Percent_6_Bucket_5: 743
Critical_ROB_Stalls_Percent_6_Bucket_6: 19123
Non-critical_ROB_Stalls_Percent_6_Bucket_6: 1254
Critical_ROB_Stalls_Percent_7_Bucket_0: 2009043
Non-critical_ROB_Stalls_Percent_7_Bucket_0: 472771
Critical_ROB_Stalls_Percent_7_Bucket_1: 649155
Non-critical_ROB_Stalls_Percent_7_Bucket_1: 40460
Critical_ROB_Stalls_Percent_7_Bucket_2: 221974
Non-critical_ROB_Stalls_Percent_7_Bucket_2: 8718
Critical_ROB_Stalls_Percent_7_Bucket_3: 56307
Non-critical_ROB_Stalls_Percent_7_Bucket_3: 2140
Critical_ROB_Stalls_Percent_7_Bucket_4: 20538
Non-critical_ROB_Stalls_Percent_7_Bucket_4: 1003
Critical_ROB_Stalls_Percent_7_Bucket_5: 11076
Non-critical_ROB_Stalls_Percent_7_Bucket_5: 674
Critical_ROB_Stalls_Percent_7_Bucket_6: 19245
Non-critical_ROB_Stalls_Percent_7_Bucket_6: 1132
Critical_ROB_Stalls_Percent_8_Bucket_0: 2170948
Non-critical_ROB_Stalls_Percent_8_Bucket_0: 310866
Critical_ROB_Stalls_Percent_8_Bucket_1: 660163
Non-critical_ROB_Stalls_Percent_8_Bucket_1: 29452
Critical_ROB_Stalls_Percent_8_Bucket_2: 224074
Non-critical_ROB_Stalls_Percent_8_Bucket_2: 6618
Critical_ROB_Stalls_Percent_8_Bucket_3: 56623
Non-critical_ROB_Stalls_Percent_8_Bucket_3: 1824
Critical_ROB_Stalls_Percent_8_Bucket_4: 20604
Non-critical_ROB_Stalls_Percent_8_Bucket_4: 937
Critical_ROB_Stalls_Percent_8_Bucket_5: 11129
Non-critical_ROB_Stalls_Percent_8_Bucket_5: 621
Critical_ROB_Stalls_Percent_8_Bucket_6: 19314
Non-critical_ROB_Stalls_Percent_8_Bucket_6: 1063
Average ROB occupancy Load Stall Begin: 37.1212
Average ROB occupancy Load Stall End: 45.1476
Min ROB occupancy Load Stall Begin: 1
Max ROB occupancy Load Stall Begin: 352
Min ROB occupancy Load Stall End: 1
Max ROB occupancy Load Stall End: 352
Average ROB occupancy Critical Load Stall Begin: -nan
Average ROB occupancy Critical Load Stall End: -nan
Min ROB occupancy Critical Load Stall Begin: 400
Max ROB occupancy Critical Load Stall Begin: 0
Min ROB occupancy Critical Load Stall End: 400
Max ROB occupancy Critical Load Stall End: 0
 ROB Load Stall Begin Bucket Count 0: 2719683
 ROB Load Stall End Bucket Count 0: 2481814
 ROB Critical Load Stall Begin Bucket Count 0: 0
 ROB Critical Load Stall End Bucket Count 0: 0
 ROB Load Stall Begin Bucket Count 1: 529433
 ROB Load Stall End Bucket Count 1: 689615
 ROB Critical Load Stall Begin Bucket Count 1: 0
 ROB Critical Load Stall End Bucket Count 1: 0
 ROB Load Stall Begin Bucket Count 2: 173294
 ROB Load Stall End Bucket Count 2: 230692
 ROB Critical Load Stall Begin Bucket Count 2: 0
 ROB Critical Load Stall End Bucket Count 2: 0
 ROB Load Stall Begin Bucket Count 3: 43970
 ROB Load Stall End Bucket Count 3: 58447
 ROB Critical Load Stall Begin Bucket Count 3: 0
 ROB Critical Load Stall End Bucket Count 3: 0
 ROB Load Stall Begin Bucket Count 4: 18226
 ROB Load Stall End Bucket Count 4: 21541
 ROB Critical Load Stall Begin Bucket Count 4: 0
 ROB Critical Load Stall End Bucket Count 4: 0
 ROB Load Stall Begin Bucket Count 5: 10873
 ROB Load Stall End Bucket Count 5: 11750
 ROB Critical Load Stall Begin Bucket Count 5: 0
 ROB Critical Load Stall End Bucket Count 5: 0
 ROB Load Stall Begin Bucket Count 6: 18757
 ROB Load Stall End Bucket Count 6: 20377
 ROB Critical Load Stall Begin Bucket Count 6: 0
 ROB Critical Load Stall End Bucket Count 6: 0
PIST Tag Read Accesses: 1783154
PIST Read Accesses: 891577
PIST Tag Write Accesses: 1783154
PIST Write Accesses: 891577
Criticality detector called times: 3401025
Max global_stall_cycles_count: 1716577
Threshold Modified: 0 times, factor: 0
Sturdy critical IP cache stats: 
 Unused entries: 0
CIC Tag Read Accesses: 0
CIC Read Accesses: 0
CIC Tag Write Accesses: 0
CIC Write Accesses: 0
Wobbly critical IP cache stats: 
 Unused entries: 125
CIC Tag Read Accesses: 158372967
CIC Read Accesses: 0
CIC Tag Write Accesses: 3
CIC Write Accesses: 0
ITLB TOTAL     ACCESS:   10085257  HIT:    9420202  MISS:     665055  HIT %:    93.4057  MISS %:    6.59433   MPKI: 13.3011
ITLB LOAD TRANSLATION ACCESS:    8092777  HIT:    8003790  MISS:      88987  HIT %:    98.9004  MISS %:    1.09959   MPKI: 1.77974
ITLB TRANSLATION FROM L1D PREFETCHER ACCESS:    1992480  HIT:    1416412  MISS:     576068  HIT %:    71.0879  MISS %:    28.9121   MPKI: 11.5214
ITLB PREFETCH  REQUESTED:          0  ISSUED:          0  USEFUL:     464455  USELESS:     111601
ITLB USEFUL LOAD PREFETCHES:     464455 PREFETCH ISSUED TO LOWER LEVEL:          0  ACCURACY: inf
ITLB TIMELY PREFETCHES:     464455 LATE PREFETCHES: 285 DROPPED PREFETCHES: 3990
ITLB PREFETCHES SAME FILL-ORIGIN LEVEL: 0 DIFFERENT FILL-ORIGIN LEVEL: 0
ITLB AVERAGE MISS LATENCY: 27643.9 cycles
ITLB RQ	ACCESS:   15171753	FORWARD:          0	MERGED:    5042320	TO_CACHE:   10129433

DTLB TOTAL     ACCESS:   11590713  HIT:   11116543  MISS:     474170  HIT %:    95.9091  MISS %:    4.09095   MPKI: 9.4834
DTLB LOAD TRANSLATION ACCESS:   11590713  HIT:   11116543  MISS:     474170  HIT %:    95.9091  MISS %:    4.09095   MPKI: 9.4834
DTLB PREFETCH  REQUESTED:          0  ISSUED:          0  USEFUL:          0  USELESS:          0
DTLB USEFUL LOAD PREFETCHES:          0 PREFETCH ISSUED TO LOWER LEVEL:          0  ACCURACY: -nan
DTLB TIMELY PREFETCHES:          0 LATE PREFETCHES: 0 DROPPED PREFETCHES: 0
DTLB PREFETCHES SAME FILL-ORIGIN LEVEL: 0 DIFFERENT FILL-ORIGIN LEVEL: 0
DTLB AVERAGE MISS LATENCY: 9.33411 cycles
DTLB RQ	ACCESS:   15063738	FORWARD:          0	MERGED:    3447185	TO_CACHE:   11616553

STLB TOTAL     ACCESS:    1139225  HIT:    1137101  MISS:       2124  HIT %:    99.8136  MISS %:   0.186443   MPKI: 0.04248
STLB LOAD TRANSLATION ACCESS:     562872  HIT:     560859  MISS:       2013  HIT %:    99.6424  MISS %:    0.35763   MPKI: 0.04026
STLB TRANSLATION FROM L1D PREFETCHER ACCESS:     576353  HIT:     576242  MISS:        111  HIT %:    99.9807  MISS %:   0.019259   MPKI: 0.00222
STLB PREFETCH  REQUESTED:          0  ISSUED:          0  USEFUL:        102  USELESS:          9
STLB USEFUL LOAD PREFETCHES:        102 PREFETCH ISSUED TO LOWER LEVEL:          0  ACCURACY: inf
STLB TIMELY PREFETCHES:        102 LATE PREFETCHES: 0 DROPPED PREFETCHES: 3990
STLB PREFETCHES SAME FILL-ORIGIN LEVEL: 0 DIFFERENT FILL-ORIGIN LEVEL: 0
STLB AVERAGE MISS LATENCY: 80.4218 cycles
STLB RQ	ACCESS:    1143215	FORWARD:          0	MERGED:          0	TO_CACHE:    1143215

STLB Hit, L1D data hit: 0
STLB Hit, L2C data hit: 0
STLB Hit, LLC data hit: 0
STLB Hit, LLC data miss: 0
STLB STLB hints to L2: 0
L1D TOTAL     ACCESS:   14549001  HIT:   13530530  MISS:    1018471  HIT %:    92.9997  MISS %:    7.00028   MPKI: 20.3694
L1D LOAD      ACCESS:    8158359  HIT:    7427728  MISS:     730631  HIT %:    91.0444  MISS %:    8.95561   MPKI: 14.6126
L1D RFO       ACCESS:    6390642  HIT:    6102802  MISS:     287840  HIT %:    95.4959  MISS %:    4.50409   MPKI: 5.7568
L1D PREFETCH  REQUESTED:          0  ISSUED:          0  USEFUL:          0  USELESS:          0
L1D USEFUL LOAD PREFETCHES:          0 PREFETCH ISSUED TO LOWER LEVEL:          0  ACCURACY: -nan
L1D TIMELY PREFETCHES:          0 LATE PREFETCHES: 0 DROPPED PREFETCHES: 0
L1D PREFETCHES SAME FILL-ORIGIN LEVEL: 0 DIFFERENT FILL-ORIGIN LEVEL: 0
L1D AVERAGE MISS LATENCY: 26.2568 cycles
L1D RQ	ACCESS:   11661642	FORWARD:          0	MERGED:    3329570	TO_CACHE:    8191388
L1D WQ	ACCESS:    6942496	FORWARD:     140684	MERGED:      70146	TO_CACHE:    6872350

L1D UNIQUE REGIONS ACCESSED: 0
L1D REGIONS CONFLICTS: 0
L1D Cross Page Prefetch Requests: 0
L1D Same Page Prefetch Requests: 0
L1D ROI Sum of L1D PQ occupancy: 0
L1D PREFETCHES PUSHED FROM L2C: 0
L1I TOTAL     ACCESS:   15022039  HIT:   10890852  MISS:    4131187  HIT %:    72.4992  MISS %:    27.5008   MPKI: 82.6237
L1I LOAD      ACCESS:    9542911  HIT:    9264702  MISS:     278209  HIT %:    97.0847  MISS %:    2.91535   MPKI: 5.56418
L1I PREFETCH  ACCESS:    5479128  HIT:    1626150  MISS:    3852978  HIT %:     29.679  MISS %:     70.321   MPKI: 77.0596
L1I PREFETCH  REQUESTED:    5738224  ISSUED:    5727271  USEFUL:    2610555  USELESS:    1242405
L1I USEFUL LOAD PREFETCHES:    2610555 PREFETCH ISSUED TO LOWER LEVEL:    3883725  ACCURACY: 67.2178
L1I TIMELY PREFETCHES:    2610555 LATE PREFETCHES: 30714 DROPPED PREFETCHES: 9420
L1I PREFETCHES SAME FILL-ORIGIN LEVEL: 3883725 DIFFERENT FILL-ORIGIN LEVEL: 0
L1I AVERAGE MISS LATENCY: 410792 cycles
L1I RQ	ACCESS:   13502011	FORWARD:          0	MERGED:    3936187	TO_CACHE:    9565824
L1I PQ	ACCESS:    5727271	FORWARD:          0	MERGED:     121342	TO_CACHE:    5605929

BTB TOTAL     ACCESS:    5988365  HIT:    3982732  MISS:    2005633  HIT %:    66.5078  MISS %:    33.4922   MPKI: 40.1127
BTB BRANCH_DIRECT_JUMP	ACCESS:     526631  HIT:     350330  MISS:     176301
BTB BRANCH_INDIRECT	ACCESS:     205902  HIT:     168509  MISS:      37393
BTB BRANCH_CONDITIONAL	ACCESS:    3029929  HIT:    2469491  MISS:     560438
BTB BRANCH_DIRECT_CALL	ACCESS:     938463  HIT:     531150  MISS:     407313
BTB BRANCH_INDIRECT_CALL	ACCESS:     174486  HIT:      95785  MISS:      78701
BTB BRANCH_RETURN	ACCESS:    1112954  HIT:     367467  MISS:     745487
BTB BRANCH_OTHER ACCESS:          0  HIT:          0  MISS:          0

L2C TOTAL     ACCESS:    6610798  HIT:    5669382  MISS:     941416  HIT %:    85.7594  MISS %:    14.2406   MPKI: 18.8283
L2C LOAD      ACCESS:     978035  HIT:     764786  MISS:     213249  HIT %:    78.1962  MISS %:    21.8038   MPKI: 4.26498
L2C DATA LOAD MPKI: 3.27916
L2C INSTRUCTION LOAD MPKI: 0.98582
L2C RFO       ACCESS:     287840  HIT:     204132  MISS:      83708  HIT %:    70.9186  MISS %:    29.0814   MPKI: 1.67416
L2C PREFETCH  ACCESS:    4831654  HIT:    4226007  MISS:     605647  HIT %:     87.465  MISS %:     12.535   MPKI: 12.1129
L2C DATA PREFETCH MPKI: 4.73204
L2C INSTRUCTION PREFETCH MPKI: 7.3809
L2C WRITEBACK ACCESS:     505250  HIT:     468439  MISS:      36811  HIT %:    92.7143  MISS %:     7.2857   MPKI: 0.73622
L2C LOAD TRANSLATION ACCESS:       2163  HIT:        450  MISS:       1713  HIT %:    20.8044  MISS %:    79.1956   MPKI: 0.03426
L2C TRANSLATION FROM L1D PREFETCHER ACCESS:       5856  HIT:       5568  MISS:        288  HIT %:     95.082  MISS %:    4.91803   MPKI: 0.00576
L2C PREFETCH  REQUESTED:    1601901  ISSUED:    1601901  USEFUL:      14374  USELESS:     591765
L2C USEFUL LOAD PREFETCHES:      14374 PREFETCH ISSUED TO LOWER LEVEL:     610025  ACCURACY: 2.3563
L2C TIMELY PREFETCHES:      14374 LATE PREFETCHES: 801 DROPPED PREFETCHES: 0
L2C PREFETCHES SAME FILL-ORIGIN LEVEL: 239214 DIFFERENT FILL-ORIGIN LEVEL: 3577
L2C AVERAGE MISS LATENCY: 34.0885 cycles
L2C RQ	ACCESS:    1273985	FORWARD:          0	MERGED:          0	TO_CACHE:    1273894
L2C WQ	ACCESS:     505250	FORWARD:         91	MERGED:          0	TO_CACHE:     505250
L2C PQ	ACCESS:    5485590	FORWARD:          0	MERGED:     646266	TO_CACHE:    4839324

L2C Instructions Evicting Data 222626
L2C Translations Evicting Data 1304
L2C Data Evicting Data 277253
L2C Instructions Evicting Instructions 195024
L2C Translations Evicting Instructions 671
L2C Data Evicting Instructions 205781
L2C Instructions Evicting Translations 686
L2C Translations Evicting Translations 26
L2C Data Evicting Translations 1234
L2C Dense regions hint from L2: 0
PSCL5 TOTAL     ACCESS:       6114  HIT:       6114  MISS:          0  HIT %:        100  MISS %:          0   MPKI: 0
PSCL5 LOAD TRANSLATION ACCESS:       2013  HIT:       2013  MISS:          0  HIT %:        100  MISS %:          0   MPKI: 0
PSCL5 TRANSLATION FROM L1D PREFETCHER ACCESS:       4101  HIT:       4101  MISS:          0  HIT %:        100  MISS %:          0   MPKI: 0
PSCL5 PREFETCH  REQUESTED:          0  ISSUED:          0  USEFUL:          0  USELESS:          0
PSCL5 USEFUL LOAD PREFETCHES:          0 PREFETCH ISSUED TO LOWER LEVEL:          0  ACCURACY: -nan
PSCL5 TIMELY PREFETCHES:          0 LATE PREFETCHES: 0 DROPPED PREFETCHES: 0
PSCL5 PREFETCHES SAME FILL-ORIGIN LEVEL: 0 DIFFERENT FILL-ORIGIN LEVEL: 0

PSCL4 TOTAL     ACCESS:       5718  HIT:       5702  MISS:         16  HIT %:    99.7202  MISS %:   0.279818   MPKI: 0.00032
PSCL4 LOAD TRANSLATION ACCESS:       1852  HIT:       1836  MISS:         16  HIT %:    99.1361  MISS %:   0.863931   MPKI: 0.00032
PSCL4 TRANSLATION FROM L1D PREFETCHER ACCESS:       3866  HIT:       3866  MISS:          0  HIT %:        100  MISS %:          0   MPKI: 0
PSCL4 PREFETCH  REQUESTED:          0  ISSUED:          0  USEFUL:          0  USELESS:          0
PSCL4 USEFUL LOAD PREFETCHES:          0 PREFETCH ISSUED TO LOWER LEVEL:          0  ACCURACY: -nan
PSCL4 TIMELY PREFETCHES:          0 LATE PREFETCHES: 0 DROPPED PREFETCHES: 0
PSCL4 PREFETCHES SAME FILL-ORIGIN LEVEL: 0 DIFFERENT FILL-ORIGIN LEVEL: 0

PSCL3 TOTAL     ACCESS:       5787  HIT:       5771  MISS:         16  HIT %:    99.7235  MISS %:   0.276482   MPKI: 0.00032
PSCL3 LOAD TRANSLATION ACCESS:       1921  HIT:       1905  MISS:         16  HIT %:    99.1671  MISS %:     0.8329   MPKI: 0.00032
PSCL3 TRANSLATION FROM L1D PREFETCHER ACCESS:       3866  HIT:       3866  MISS:          0  HIT %:        100  MISS %:          0   MPKI: 0
PSCL3 PREFETCH  REQUESTED:          0  ISSUED:          0  USEFUL:          0  USELESS:          0
PSCL3 USEFUL LOAD PREFETCHES:          0 PREFETCH ISSUED TO LOWER LEVEL:          0  ACCURACY: -nan
PSCL3 TIMELY PREFETCHES:          0 LATE PREFETCHES: 0 DROPPED PREFETCHES: 0
PSCL3 PREFETCHES SAME FILL-ORIGIN LEVEL: 0 DIFFERENT FILL-ORIGIN LEVEL: 0

PSCL2 TOTAL     ACCESS:       4578  HIT:       4431  MISS:        147  HIT %:     96.789  MISS %:    3.21101   MPKI: 0.00294
PSCL2 LOAD TRANSLATION ACCESS:       2032  HIT:       1885  MISS:        147  HIT %:    92.7657  MISS %:    7.23425   MPKI: 0.00294
PSCL2 TRANSLATION FROM L1D PREFETCHER ACCESS:       2546  HIT:       2546  MISS:          0  HIT %:        100  MISS %:          0   MPKI: 0
PSCL2 PREFETCH  REQUESTED:          0  ISSUED:          0  USEFUL:          0  USELESS:          0
PSCL2 USEFUL LOAD PREFETCHES:          0 PREFETCH ISSUED TO LOWER LEVEL:          0  ACCURACY: -nan
PSCL2 TIMELY PREFETCHES:          0 LATE PREFETCHES: 0 DROPPED PREFETCHES: 0
PSCL2 PREFETCHES SAME FILL-ORIGIN LEVEL: 0 DIFFERENT FILL-ORIGIN LEVEL: 0

LLC TOTAL     ACCESS:    1029319  HIT:     998826  MISS:      30493  HIT %:    97.0376  MISS %:    2.96244   MPKI: 0.60986
LLC LOAD      ACCESS:     212447  HIT:     202383  MISS:      10064  HIT %:    95.2628  MISS %:    4.73718   MPKI: 0.20128
LLC RFO       ACCESS:      83707  HIT:      68863  MISS:      14844  HIT %:    82.2667  MISS %:    17.7333   MPKI: 0.29688
LLC PREFETCH  ACCESS:     610014  HIT:     604880  MISS:       5134  HIT %:    99.1584  MISS %:    0.84162   MPKI: 0.10268
LLC WRITEBACK ACCESS:     121150  HIT:     120853  MISS:        297  HIT %:    99.7548  MISS %:   0.245151   MPKI: 0.00594
LLC LOAD TRANSLATION ACCESS:       1713  HIT:       1572  MISS:        141  HIT %:    91.7688  MISS %:    8.23117   MPKI: 0.00282
LLC TRANSLATION FROM L1D PREFETCHER ACCESS:        288  HIT:        275  MISS:         13  HIT %:    95.4861  MISS %:    4.51389   MPKI: 0.00026
LLC PREFETCH  REQUESTED:          0  ISSUED:          0  USEFUL:         75  USELESS:       4368
LLC USEFUL LOAD PREFETCHES:         75 PREFETCH ISSUED TO LOWER LEVEL:       5136  ACCURACY: 1.46028
LLC TIMELY PREFETCHES:         75 LATE PREFETCHES: 2 DROPPED PREFETCHES: 0
LLC PREFETCHES SAME FILL-ORIGIN LEVEL: 67 DIFFERENT FILL-ORIGIN LEVEL: 0
LLC AVERAGE MISS LATENCY: 162.526 cycles
LLC RQ	ACCESS:     298157	FORWARD:          0	MERGED:          0	TO_CACHE:     298155
LLC WQ	ACCESS:     121150	FORWARD:          2	MERGED:          0	TO_CACHE:     121150
LLC PQ	ACCESS:     610025	FORWARD:          0	MERGED:          8	TO_CACHE:     610017

LLC Dense regions hint to LLC: 0

RAW hits: 973086
Loads Generated: 12634728
Loads sent to L1D: 11661642
Stores Generated: 6942481
Stores sent to L1D: 6942496
Major fault: 0 Minor fault: 2582
Allocated PAGES: 2582
I-Shadow cache 408 bytes
Touched + WorthPF tables 6144 bytes 
MMA filter 174 bytes 
FNL filter 272 bytes 
TOTAL PREFETCHER STORAGE SIZE: 25174 bytes
CPU 0 L1I next line prefetcher final stats
------------------
Depth Distribution
------------------
depth 0: 1296
depth 1: 4731
depth 2: 409568
depth 3: 1761801
depth 4: 12974
depth 5: 831
depth 6: 438
depth 7: 399
depth 8: 477
depth 9: 470
depth 10: 121
depth 11: 482
depth 12: 197
depth 13: 45
depth 14: 144
depth 15: 1
depth 16: 0
depth 17: 0
depth 18: 0
depth 19: 0
depth 20: 0
depth 21: 0
depth 22: 0
depth 23: 0
depth 24: 0
depth 25: 0
depth 26: 0
depth 27: 0
depth 28: 0
depth 29: 0
Total: 2193975
------------------
ST read accesses: 812098
ST write accesses: 301660
PT read accesses: 21330400
PT write accesses: 926774
FILTER read accesses: 5635182
FILTER write accesses: 4201106
GHR read accesses: 2902220
GHR write accesses: 97424
PERC read accesses: 159456960
PERC write accesses: 15150974
GHR counter read accesses: 2227516
GHR counter write accesses: 3709778
GHR ip read accesses: 8273232
GHR ip write accesses: 4455032
ST tag read accesses: 36931544
ST tag write accesses: 5986415

DRAM Statistics
 CHANNEL 0
 RQ ROW_BUFFER_HIT:       9636  ROW_BUFFER_MISS:      20550
 DBUS_CONGESTED:          2
 WQ ROW_BUFFER_HIT:       1524  ROW_BUFFER_MISS:      14493  FULL:          0

 AVG_CONGESTED_CYCLE: 3
 All warmup complete: 2
Channel 0 Bank busy for read cycles: 0
Channel 0 Bank busy for write cycles: 0
Channel 0
Rank 0
0banks busy for read cycles: 79182045
0banks busy for write cycles: 4748
1banks busy for read cycles: 1671709
1banks busy for write cycles: 660396
2banks busy for read cycles: 193920
2banks busy for write cycles: 166192
3banks busy for read cycles: 69747
3banks busy for write cycles: 105906
4banks busy for read cycles: 35237
4banks busy for write cycles: 88262
5banks busy for read cycles: 27642
5banks busy for write cycles: 74141
6banks busy for read cycles: 28707
6banks busy for write cycles: 75956
7banks busy for read cycles: 35229
7banks busy for write cycles: 76610
8banks busy for read cycles: 77714
8banks busy for write cycles: 97350

CPU 0 Branch Prediction Accuracy: 99.8082% MPKI: 0.35064 Average ROB Occupancy at Mispredict: 73.1599
Branch types
NOT_BRANCH: 40857278 81.7146%
BRANCH_DIRECT_JUMP: 526631 1.05326%
BRANCH_INDIRECT: 205902 0.411804%
BRANCH_CONDITIONAL: 6184020 12.368%
BRANCH_DIRECT_CALL: 938463 1.87693%
BRANCH_INDIRECT_CALL: 174486 0.348972%
BRANCH_RETURN: 1112954 2.22591%
BRANCH_OTHER: 0 0%

DRAM PAGES: 1048576
Allocated PAGES: 2582
