Initialize SIGNATURE TABLE
ST_SET: 1
ST_WAY: 256
ST_TAG_BIT: 16
ST_TAG_MASK: ffff

Initialize PATTERN TABLE
PT_SET: 512
PT_WAY: 4
SIG_DELTA_BIT: 7
C_SIG_BIT: 4
C_DELTA_BIT: 4

Initialize PREFETCH FILTER
FILTER_SET: 1024

*** ChampSim Multicore Out-of-Order Simulator ***

Warmup Instructions: 50000000
Simulation Instructions: 50000000
Number of CPUs: 1
LLC sets: 2048
LLC ways: 16
Off-chip DRAM Size: 4096 MB Channels: 1 Width: 64-bit Data Rate: 6400 MT/s
CPU 0 runs ../IPC-traces//server_031.champsimtrace.xz
.xz
BTB has LRU replacement policy
ITLB has LRU replacement policy
DTLB has LRU replacement policy
STLB has LRU replacement policy
CPU 0 L1I next line prefetcher
L1I has LRU replacement policy
L1D has LRU replacement policy
Initialize SRRIP state for L2C
Initialize DRRIP state for LLC
Heartbeat CPU 0 instructions: 10000000 cycles: 2883756 heartbeat IPC: 3.4677 cumulative IPC: 3.4677 (Simulation time: 0 hr 3 min 22 sec) 
Heartbeat CPU 0 instructions: 20000000 cycles: 5763486 heartbeat IPC: 3.47255 cumulative IPC: 3.47012 (Simulation time: 0 hr 6 min 13 sec) 
Heartbeat CPU 0 instructions: 30000002 cycles: 8641559 heartbeat IPC: 3.47455 cumulative IPC: 3.4716 (Simulation time: 0 hr 9 min 4 sec) 
Heartbeat CPU 0 instructions: 40000003 cycles: 11519356 heartbeat IPC: 3.47488 cumulative IPC: 3.47242 (Simulation time: 0 hr 11 min 33 sec) 
Heartbeat CPU 0 instructions: 50000001 cycles: 14399536 heartbeat IPC: 3.472 cumulative IPC: 3.47233 (Simulation time: 0 hr 13 min 45 sec) 

Warmup complete CPU 0 instructions: 50000001 cycles: 14399536 (Simulation time: 0 hr 13 min 45 sec) 

Heartbeat CPU 0 instructions: 60000002 cycles: 30727774 heartbeat IPC: 0.612436 cumulative IPC: 0.612436 (Simulation time: 0 hr 16 min 20 sec) 
Heartbeat CPU 0 instructions: 70000001 cycles: 47049951 heartbeat IPC: 0.612663 cumulative IPC: 0.61255 (Simulation time: 0 hr 18 min 55 sec) 
*** Reached end of trace for Core: 0 Repeating trace: ../IPC-traces//server_031.champsimtrace.xz
Heartbeat CPU 0 instructions: 80000000 cycles: 63194196 heartbeat IPC: 0.619416 cumulative IPC: 0.614821 (Simulation time: 0 hr 21 min 31 sec) 
Heartbeat CPU 0 instructions: 90000000 cycles: 79358704 heartbeat IPC: 0.618639 cumulative IPC: 0.615771 (Simulation time: 0 hr 24 min 6 sec) 
Heartbeat CPU 0 instructions: 100000000 cycles: 95453526 heartbeat IPC: 0.621318 cumulative IPC: 0.616873 (Simulation time: 0 hr 27 min 50 sec) 
Finished CPU 0 instructions: 50000000 cycles: 81053996 cumulative IPC: 0.616873 (Simulation time: 0 hr 27 min 50 sec) 

ChampSim completed all CPUs

Region of Interest Statistics

CPU 0 cumulative IPC: 0.616873 instructions: 50000000 cycles: 81053996

CPU 0 Average Load ROB stall cycles: 1.95309e+07
CPU 0 Fraction of times ROB stalled by Loads: 35.453
CPU 0 Percentage of Load stall cycles in Total stall cycles: 2.72875e+08
Issued all: 27900137
Issued LT all: 22044116
rob_not_full_when_issued_lt_all: 21919759
Issued LT one: 17115082
rob_not_full_when_issued_lt_one: 17007761
FVP critical_dynamic_instances_0: 1415370
FVP unique_critical_ips_0: 4729
 Total stall cycles: 68619374
 Total load stall cycles: 187244834882108
Unique Load IPs: 12877
CPU 0 NUM of IPS identified critical: 0
CPU 0 Num of Load IPs stalling ROB: 0
Threshold modification factor: 0
Trouble in retire width: -nan
MaC = Marked as critical.
lt_50_percent_before_Mac: 0
gt_90_percent_before_Mac: 0
gt_75_percent_before_Mac: 0
gt_50_percent_before_Mac: 0
stall_proportion_bin_same_before_after: 0
stall_proportion_bin_lower_before_after: 0
stall_proportion_bin_upper_before_after: 0
average_stall_proportion_before: -nan
average_stall_proportion_after: -nan
Critical IP stalls, total frequency: 0
Non-critical IP stalls, total frequency: 0
Total Freq all stalling IPs: 0
Critical_IP_Detector_Accuracy_70: 0.000211461
Critical_IP_Detector_Accuracy_80: 0.000211461
Critical_IP_Detector_Accuracy_90: 0.000211461
Critical_IP_Detector_Coverage_70: 1
Critical_IP_Detector_Coverage_80: 1
Critical_IP_Detector_Coverage_90: 1
stat_90_percent_critical_ip_stalls_freq: 46300
stat_90_percent_non_critical_ip_stalls_freq: 18446744073709505316
AVERAGE_ROB_Occupancy_90_Percent_Critical_IP_Stalls: 17.6352
AVERAGE_ROB_Occupancy_90_Percent_Non_Critical_IP_Stalls: 8.47785e-12
Critical_IP_ROB_Stalls_Bucket_0: 0
Non-critical_IP_ROB_Stalls_Bucket_0: 2342035
Critical_IP_ROB_Stalls_Bucket_1: 0
Non-critical_IP_ROB_Stalls_Bucket_1: 708839
Critical_IP_ROB_Stalls_Bucket_2: 0
Non-critical_IP_ROB_Stalls_Bucket_2: 239312
Critical_IP_ROB_Stalls_Bucket_3: 0
Non-critical_IP_ROB_Stalls_Bucket_3: 67933
Critical_IP_ROB_Stalls_Bucket_4: 0
Non-critical_IP_ROB_Stalls_Bucket_4: 24719
Critical_IP_ROB_Stalls_Bucket_5: 0
Non-critical_IP_ROB_Stalls_Bucket_5: 8287
Critical_IP_ROB_Stalls_Bucket_6: 0
Non-critical_IP_ROB_Stalls_Bucket_6: 7786
0 => IPs accounting for >50 percent of stalls, 1 => 55, 2 => 60, 3 => 65 and so on till 90.
percent50: inf num IPs:  1
percent55: inf num IPs: 1
percent60: inf num IPs: 1
percent65: inf num IPs: 1
percent70: inf num IPs: 1
percent75: inf num IPs: 1
percent80: inf num IPs: 1
percent85: inf num IPs: 1
percent90: inf num IPs: 1
Critical_ROB_Stalls_Percent_0_Bucket_0: 46253
Non-critical_ROB_Stalls_Percent_0_Bucket_0: 2295782
Critical_ROB_Stalls_Percent_0_Bucket_1: 42
Non-critical_ROB_Stalls_Percent_0_Bucket_1: 708797
Critical_ROB_Stalls_Percent_0_Bucket_2: 0
Non-critical_ROB_Stalls_Percent_0_Bucket_2: 239312
Critical_ROB_Stalls_Percent_0_Bucket_3: 2
Non-critical_ROB_Stalls_Percent_0_Bucket_3: 67931
Critical_ROB_Stalls_Percent_0_Bucket_4: 2
Non-critical_ROB_Stalls_Percent_0_Bucket_4: 24717
Critical_ROB_Stalls_Percent_0_Bucket_5: 1
Non-critical_ROB_Stalls_Percent_0_Bucket_5: 8286
Critical_ROB_Stalls_Percent_0_Bucket_6: 0
Non-critical_ROB_Stalls_Percent_0_Bucket_6: 7786
Critical_ROB_Stalls_Percent_1_Bucket_0: 46253
Non-critical_ROB_Stalls_Percent_1_Bucket_0: 2295782
Critical_ROB_Stalls_Percent_1_Bucket_1: 42
Non-critical_ROB_Stalls_Percent_1_Bucket_1: 708797
Critical_ROB_Stalls_Percent_1_Bucket_2: 0
Non-critical_ROB_Stalls_Percent_1_Bucket_2: 239312
Critical_ROB_Stalls_Percent_1_Bucket_3: 2
Non-critical_ROB_Stalls_Percent_1_Bucket_3: 67931
Critical_ROB_Stalls_Percent_1_Bucket_4: 2
Non-critical_ROB_Stalls_Percent_1_Bucket_4: 24717
Critical_ROB_Stalls_Percent_1_Bucket_5: 1
Non-critical_ROB_Stalls_Percent_1_Bucket_5: 8286
Critical_ROB_Stalls_Percent_1_Bucket_6: 0
Non-critical_ROB_Stalls_Percent_1_Bucket_6: 7786
Critical_ROB_Stalls_Percent_2_Bucket_0: 46253
Non-critical_ROB_Stalls_Percent_2_Bucket_0: 2295782
Critical_ROB_Stalls_Percent_2_Bucket_1: 42
Non-critical_ROB_Stalls_Percent_2_Bucket_1: 708797
Critical_ROB_Stalls_Percent_2_Bucket_2: 0
Non-critical_ROB_Stalls_Percent_2_Bucket_2: 239312
Critical_ROB_Stalls_Percent_2_Bucket_3: 2
Non-critical_ROB_Stalls_Percent_2_Bucket_3: 67931
Critical_ROB_Stalls_Percent_2_Bucket_4: 2
Non-critical_ROB_Stalls_Percent_2_Bucket_4: 24717
Critical_ROB_Stalls_Percent_2_Bucket_5: 1
Non-critical_ROB_Stalls_Percent_2_Bucket_5: 8286
Critical_ROB_Stalls_Percent_2_Bucket_6: 0
Non-critical_ROB_Stalls_Percent_2_Bucket_6: 7786
Critical_ROB_Stalls_Percent_3_Bucket_0: 46253
Non-critical_ROB_Stalls_Percent_3_Bucket_0: 2295782
Critical_ROB_Stalls_Percent_3_Bucket_1: 42
Non-critical_ROB_Stalls_Percent_3_Bucket_1: 708797
Critical_ROB_Stalls_Percent_3_Bucket_2: 0
Non-critical_ROB_Stalls_Percent_3_Bucket_2: 239312
Critical_ROB_Stalls_Percent_3_Bucket_3: 2
Non-critical_ROB_Stalls_Percent_3_Bucket_3: 67931
Critical_ROB_Stalls_Percent_3_Bucket_4: 2
Non-critical_ROB_Stalls_Percent_3_Bucket_4: 24717
Critical_ROB_Stalls_Percent_3_Bucket_5: 1
Non-critical_ROB_Stalls_Percent_3_Bucket_5: 8286
Critical_ROB_Stalls_Percent_3_Bucket_6: 0
Non-critical_ROB_Stalls_Percent_3_Bucket_6: 7786
Critical_ROB_Stalls_Percent_4_Bucket_0: 46253
Non-critical_ROB_Stalls_Percent_4_Bucket_0: 2295782
Critical_ROB_Stalls_Percent_4_Bucket_1: 42
Non-critical_ROB_Stalls_Percent_4_Bucket_1: 708797
Critical_ROB_Stalls_Percent_4_Bucket_2: 0
Non-critical_ROB_Stalls_Percent_4_Bucket_2: 239312
Critical_ROB_Stalls_Percent_4_Bucket_3: 2
Non-critical_ROB_Stalls_Percent_4_Bucket_3: 67931
Critical_ROB_Stalls_Percent_4_Bucket_4: 2
Non-critical_ROB_Stalls_Percent_4_Bucket_4: 24717
Critical_ROB_Stalls_Percent_4_Bucket_5: 1
Non-critical_ROB_Stalls_Percent_4_Bucket_5: 8286
Critical_ROB_Stalls_Percent_4_Bucket_6: 0
Non-critical_ROB_Stalls_Percent_4_Bucket_6: 7786
Critical_ROB_Stalls_Percent_5_Bucket_0: 46253
Non-critical_ROB_Stalls_Percent_5_Bucket_0: 2295782
Critical_ROB_Stalls_Percent_5_Bucket_1: 42
Non-critical_ROB_Stalls_Percent_5_Bucket_1: 708797
Critical_ROB_Stalls_Percent_5_Bucket_2: 0
Non-critical_ROB_Stalls_Percent_5_Bucket_2: 239312
Critical_ROB_Stalls_Percent_5_Bucket_3: 2
Non-critical_ROB_Stalls_Percent_5_Bucket_3: 67931
Critical_ROB_Stalls_Percent_5_Bucket_4: 2
Non-critical_ROB_Stalls_Percent_5_Bucket_4: 24717
Critical_ROB_Stalls_Percent_5_Bucket_5: 1
Non-critical_ROB_Stalls_Percent_5_Bucket_5: 8286
Critical_ROB_Stalls_Percent_5_Bucket_6: 0
Non-critical_ROB_Stalls_Percent_5_Bucket_6: 7786
Critical_ROB_Stalls_Percent_6_Bucket_0: 46253
Non-critical_ROB_Stalls_Percent_6_Bucket_0: 2295782
Critical_ROB_Stalls_Percent_6_Bucket_1: 42
Non-critical_ROB_Stalls_Percent_6_Bucket_1: 708797
Critical_ROB_Stalls_Percent_6_Bucket_2: 0
Non-critical_ROB_Stalls_Percent_6_Bucket_2: 239312
Critical_ROB_Stalls_Percent_6_Bucket_3: 2
Non-critical_ROB_Stalls_Percent_6_Bucket_3: 67931
Critical_ROB_Stalls_Percent_6_Bucket_4: 2
Non-critical_ROB_Stalls_Percent_6_Bucket_4: 24717
Critical_ROB_Stalls_Percent_6_Bucket_5: 1
Non-critical_ROB_Stalls_Percent_6_Bucket_5: 8286
Critical_ROB_Stalls_Percent_6_Bucket_6: 0
Non-critical_ROB_Stalls_Percent_6_Bucket_6: 7786
Critical_ROB_Stalls_Percent_7_Bucket_0: 46253
Non-critical_ROB_Stalls_Percent_7_Bucket_0: 2295782
Critical_ROB_Stalls_Percent_7_Bucket_1: 42
Non-critical_ROB_Stalls_Percent_7_Bucket_1: 708797
Critical_ROB_Stalls_Percent_7_Bucket_2: 0
Non-critical_ROB_Stalls_Percent_7_Bucket_2: 239312
Critical_ROB_Stalls_Percent_7_Bucket_3: 2
Non-critical_ROB_Stalls_Percent_7_Bucket_3: 67931
Critical_ROB_Stalls_Percent_7_Bucket_4: 2
Non-critical_ROB_Stalls_Percent_7_Bucket_4: 24717
Critical_ROB_Stalls_Percent_7_Bucket_5: 1
Non-critical_ROB_Stalls_Percent_7_Bucket_5: 8286
Critical_ROB_Stalls_Percent_7_Bucket_6: 0
Non-critical_ROB_Stalls_Percent_7_Bucket_6: 7786
Critical_ROB_Stalls_Percent_8_Bucket_0: 46253
Non-critical_ROB_Stalls_Percent_8_Bucket_0: 2295782
Critical_ROB_Stalls_Percent_8_Bucket_1: 42
Non-critical_ROB_Stalls_Percent_8_Bucket_1: 708797
Critical_ROB_Stalls_Percent_8_Bucket_2: 0
Non-critical_ROB_Stalls_Percent_8_Bucket_2: 239312
Critical_ROB_Stalls_Percent_8_Bucket_3: 2
Non-critical_ROB_Stalls_Percent_8_Bucket_3: 67931
Critical_ROB_Stalls_Percent_8_Bucket_4: 2
Non-critical_ROB_Stalls_Percent_8_Bucket_4: 24717
Critical_ROB_Stalls_Percent_8_Bucket_5: 1
Non-critical_ROB_Stalls_Percent_8_Bucket_5: 8286
Critical_ROB_Stalls_Percent_8_Bucket_6: 0
Non-critical_ROB_Stalls_Percent_8_Bucket_6: 7786
Average ROB occupancy Load Stall Begin: 37.7032
Average ROB occupancy Load Stall End: 46.2516
Min ROB occupancy Load Stall Begin: 1
Max ROB occupancy Load Stall Begin: 352
Min ROB occupancy Load Stall End: 1
Max ROB occupancy Load Stall End: 352
Average ROB occupancy Critical Load Stall Begin: -nan
Average ROB occupancy Critical Load Stall End: -nan
Min ROB occupancy Critical Load Stall Begin: 400
Max ROB occupancy Critical Load Stall Begin: 0
Min ROB occupancy Critical Load Stall End: 400
Max ROB occupancy Critical Load Stall End: 0
 ROB Load Stall Begin Bucket Count 0: 2611758
 ROB Load Stall End Bucket Count 0: 2342035
 ROB Critical Load Stall Begin Bucket Count 0: 0
 ROB Critical Load Stall End Bucket Count 0: 0
 ROB Load Stall Begin Bucket Count 1: 515655
 ROB Load Stall End Bucket Count 1: 708839
 ROB Critical Load Stall Begin Bucket Count 1: 0
 ROB Critical Load Stall End Bucket Count 1: 0
 ROB Load Stall Begin Bucket Count 2: 185355
 ROB Load Stall End Bucket Count 2: 239312
 ROB Critical Load Stall Begin Bucket Count 2: 0
 ROB Critical Load Stall End Bucket Count 2: 0
 ROB Load Stall Begin Bucket Count 3: 53489
 ROB Load Stall End Bucket Count 3: 67933
 ROB Critical Load Stall Begin Bucket Count 3: 0
 ROB Critical Load Stall End Bucket Count 3: 0
 ROB Load Stall Begin Bucket Count 4: 19202
 ROB Load Stall End Bucket Count 4: 24719
 ROB Critical Load Stall Begin Bucket Count 4: 0
 ROB Critical Load Stall End Bucket Count 4: 0
 ROB Load Stall Begin Bucket Count 5: 6557
 ROB Load Stall End Bucket Count 5: 8287
 ROB Critical Load Stall Begin Bucket Count 5: 0
 ROB Critical Load Stall End Bucket Count 5: 0
 ROB Load Stall Begin Bucket Count 6: 6895
 ROB Load Stall End Bucket Count 6: 7786
 ROB Critical Load Stall Begin Bucket Count 6: 0
 ROB Critical Load Stall End Bucket Count 6: 0
PIST Tag Read Accesses: 0
PIST Read Accesses: 0
PIST Tag Write Accesses: 0
PIST Write Accesses: 0
Criticality detector called times: 0
Max global_stall_cycles_count: 0
Threshold Modified: 0 times, factor: 0
ITLB TOTAL     ACCESS:   10423177  HIT:    9652109  MISS:     771068  HIT %:    92.6024  MISS %:    7.39763   MPKI: 15.4214
ITLB LOAD TRANSLATION ACCESS:    8205714  HIT:    8152916  MISS:      52798  HIT %:    99.3566  MISS %:    0.64343   MPKI: 1.05596
ITLB TRANSLATION FROM L1D PREFETCHER ACCESS:    2217463  HIT:    1499193  MISS:     718270  HIT %:    67.6085  MISS %:    32.3915   MPKI: 14.3654
ITLB PREFETCH  REQUESTED:          0  ISSUED:          0  USEFUL:     575046  USELESS:     143234
ITLB USEFUL LOAD PREFETCHES:     575046 PREFETCH ISSUED TO LOWER LEVEL:          0  ACCURACY: inf
ITLB TIMELY PREFETCHES:     575046 LATE PREFETCHES: 106 DROPPED PREFETCHES: 5545
ITLB PREFETCHES SAME FILL-ORIGIN LEVEL: 0 DIFFERENT FILL-ORIGIN LEVEL: 0
ITLB AVERAGE MISS LATENCY: 6145.67 cycles
ITLB RQ	ACCESS:   15960637	FORWARD:          0	MERGED:    5492846	TO_CACHE:   10467791

DTLB TOTAL     ACCESS:   11396198  HIT:   10838102  MISS:     558096  HIT %:    95.1028  MISS %:    4.89721   MPKI: 11.1619
DTLB LOAD TRANSLATION ACCESS:   11396198  HIT:   10838102  MISS:     558096  HIT %:    95.1028  MISS %:    4.89721   MPKI: 11.1619
DTLB PREFETCH  REQUESTED:          0  ISSUED:          0  USEFUL:          0  USELESS:          0
DTLB USEFUL LOAD PREFETCHES:          0 PREFETCH ISSUED TO LOWER LEVEL:          0  ACCURACY: -nan
DTLB TIMELY PREFETCHES:          0 LATE PREFETCHES: 0 DROPPED PREFETCHES: 0
DTLB PREFETCHES SAME FILL-ORIGIN LEVEL: 0 DIFFERENT FILL-ORIGIN LEVEL: 0
DTLB AVERAGE MISS LATENCY: 10.8596 cycles
DTLB RQ	ACCESS:   14921822	FORWARD:          0	MERGED:    3497920	TO_CACHE:   11423902

STLB TOTAL     ACCESS:    1329164  HIT:    1313054  MISS:      16110  HIT %:     98.788  MISS %:    1.21204   MPKI: 0.3222
STLB LOAD TRANSLATION ACCESS:     610788  HIT:     596595  MISS:      14193  HIT %:    97.6763  MISS %:    2.32372   MPKI: 0.28386
STLB TRANSLATION FROM L1D PREFETCHER ACCESS:     718376  HIT:     716459  MISS:       1917  HIT %:    99.7331  MISS %:   0.266852   MPKI: 0.03834
STLB PREFETCH  REQUESTED:          0  ISSUED:          0  USEFUL:       1671  USELESS:        239
STLB USEFUL LOAD PREFETCHES:       1671 PREFETCH ISSUED TO LOWER LEVEL:          0  ACCURACY: inf
STLB TIMELY PREFETCHES:       1671 LATE PREFETCHES: 0 DROPPED PREFETCHES: 5545
STLB PREFETCHES SAME FILL-ORIGIN LEVEL: 0 DIFFERENT FILL-ORIGIN LEVEL: 0
STLB AVERAGE MISS LATENCY: 70.0997 cycles
STLB RQ	ACCESS:    1334709	FORWARD:          0	MERGED:          0	TO_CACHE:    1334709

STLB Hit, L1D data hit: 0
STLB Hit, L2C data hit: 0
STLB Hit, LLC data hit: 0
STLB Hit, LLC data miss: 0
STLB STLB hints to L2: 0
L1D TOTAL     ACCESS:   14388906  HIT:   13149940  MISS:    1238966  HIT %:    91.3894  MISS %:    8.61056   MPKI: 24.7793
L1D LOAD      ACCESS:    7964968  HIT:    7029147  MISS:     935821  HIT %:    88.2508  MISS %:    11.7492   MPKI: 18.7164
L1D RFO       ACCESS:    6423938  HIT:    6120793  MISS:     303145  HIT %:     95.281  MISS %:    4.71899   MPKI: 6.0629
L1D PREFETCH  REQUESTED:          0  ISSUED:          0  USEFUL:          0  USELESS:          0
L1D USEFUL LOAD PREFETCHES:          0 PREFETCH ISSUED TO LOWER LEVEL:          0  ACCURACY: -nan
L1D TIMELY PREFETCHES:          0 LATE PREFETCHES: 0 DROPPED PREFETCHES: 0
L1D PREFETCHES SAME FILL-ORIGIN LEVEL: 0 DIFFERENT FILL-ORIGIN LEVEL: 0
L1D AVERAGE MISS LATENCY: 22.0786 cycles
L1D RQ	ACCESS:   11357041	FORWARD:          0	MERGED:    3197842	TO_CACHE:    8007344
L1D WQ	ACCESS:    6987103	FORWARD:     151855	MERGED:      72625	TO_CACHE:    6914478

L1D UNIQUE REGIONS ACCESSED: 0
L1D REGIONS CONFLICTS: 0
L1D Cross Page Prefetch Requests: 0
L1D Same Page Prefetch Requests: 0
L1D ROI Sum of L1D PQ occupancy: 0
L1D PREFETCHES PUSHED FROM L2C: 0
L1I TOTAL     ACCESS:   15868726  HIT:   11485963  MISS:    4382763  HIT %:    72.3811  MISS %:    27.6189   MPKI: 87.6553
L1I LOAD      ACCESS:    9699590  HIT:    9623683  MISS:      75907  HIT %:    99.2174  MISS %:   0.782579   MPKI: 1.51814
L1I PREFETCH  ACCESS:    6169136  HIT:    1862280  MISS:    4306856  HIT %:     30.187  MISS %:     69.813   MPKI: 86.1371
L1I PREFETCH  REQUESTED:    6382504  ISSUED:    6372759  USEFUL:    3051812  USELESS:    1255077
L1I USEFUL LOAD PREFETCHES:    3051812 PREFETCH ISSUED TO LOWER LEVEL:    4323405  ACCURACY: 70.5882
L1I TIMELY PREFETCHES:    3051812 LATE PREFETCHES: 16557 DROPPED PREFETCHES: 12150
L1I PREFETCHES SAME FILL-ORIGIN LEVEL: 4323405 DIFFERENT FILL-ORIGIN LEVEL: 0
L1I AVERAGE MISS LATENCY: 204862 cycles
L1I RQ	ACCESS:   13650650	FORWARD:          0	MERGED:    3940841	TO_CACHE:    9709809
L1I PQ	ACCESS:    6372759	FORWARD:          0	MERGED:     121931	TO_CACHE:    6250828

BTB TOTAL     ACCESS:    6108828  HIT:    4217933  MISS:    1890895  HIT %:    69.0465  MISS %:    30.9535   MPKI: 37.8179
BTB BRANCH_DIRECT_JUMP	ACCESS:     546483  HIT:     394596  MISS:     151887
BTB BRANCH_INDIRECT	ACCESS:     172433  HIT:     135681  MISS:      36752
BTB BRANCH_CONDITIONAL	ACCESS:    2972187  HIT:    2453635  MISS:     518552
BTB BRANCH_DIRECT_CALL	ACCESS:    1018497  HIT:     648526  MISS:     369971
BTB BRANCH_INDIRECT_CALL	ACCESS:     190373  HIT:     119425  MISS:      70948
BTB BRANCH_RETURN	ACCESS:    1208855  HIT:     466070  MISS:     742785
BTB BRANCH_OTHER ACCESS:          0  HIT:          0  MISS:          0

L2C TOTAL     ACCESS:    6329447  HIT:    5943076  MISS:     386371  HIT %:    93.8957  MISS %:    6.10434   MPKI: 7.72742
L2C LOAD      ACCESS:     995165  HIT:     864685  MISS:     130480  HIT %:    86.8886  MISS %:    13.1114   MPKI: 2.6096
L2C DATA LOAD MPKI: 2.44566
L2C INSTRUCTION LOAD MPKI: 0.16394
L2C RFO       ACCESS:     303146  HIT:     273006  MISS:      30140  HIT %:    90.0576  MISS %:     9.9424   MPKI: 0.6028
L2C PREFETCH  ACCESS:    4421831  HIT:    4221863  MISS:     199968  HIT %:    95.4777  MISS %:    4.52229   MPKI: 3.99936
L2C DATA PREFETCH MPKI: 0.03572
L2C INSTRUCTION PREFETCH MPKI: 3.96364
L2C WRITEBACK ACCESS:     575927  HIT:     562152  MISS:      13775  HIT %:    97.6082  MISS %:     2.3918   MPKI: 0.2755
L2C LOAD TRANSLATION ACCESS:      21671  HIT:      10614  MISS:      11057  HIT %:    48.9779  MISS %:    51.0221   MPKI: 0.22114
L2C TRANSLATION FROM L1D PREFETCHER ACCESS:      11707  HIT:      10756  MISS:        951  HIT %:    91.8767  MISS %:    8.12335   MPKI: 0.01902
L2C PREFETCH  REQUESTED:     147015  ISSUED:     147015  USEFUL:       3415  USELESS:     197400
L2C USEFUL LOAD PREFETCHES:       3415 PREFETCH ISSUED TO LOWER LEVEL:     242305  ACCURACY: 1.40938
L2C TIMELY PREFETCHES:       3415 LATE PREFETCHES: 1375 DROPPED PREFETCHES: 0
L2C PREFETCHES SAME FILL-ORIGIN LEVEL: 3161 DIFFERENT FILL-ORIGIN LEVEL: 40962
L2C AVERAGE MISS LATENCY: 41.1294 cycles
L2C RQ	ACCESS:    1331694	FORWARD:          0	MERGED:          0	TO_CACHE:    1331689
L2C WQ	ACCESS:     575927	FORWARD:          5	MERGED:          0	TO_CACHE:     575927
L2C PQ	ACCESS:    4470420	FORWARD:          0	MERGED:       3615	TO_CACHE:    4466805

L2C Instructions Evicting Data 77952
L2C Translations Evicting Data 7165
L2C Data Evicting Data 77465
L2C Instructions Evicting Instructions 124586
L2C Translations Evicting Instructions 3830
L2C Data Evicting Instructions 69757
L2C Instructions Evicting Translations 3841
L2C Translations Evicting Translations 1013
L2C Data Evicting Translations 6987
L2C Dense regions hint from L2: 0
PSCL5 TOTAL     ACCESS:      21655  HIT:      21655  MISS:          0  HIT %:        100  MISS %:          0   MPKI: 0
PSCL5 LOAD TRANSLATION ACCESS:      14193  HIT:      14193  MISS:          0  HIT %:        100  MISS %:          0   MPKI: 0
PSCL5 TRANSLATION FROM L1D PREFETCHER ACCESS:       7462  HIT:       7462  MISS:          0  HIT %:        100  MISS %:          0   MPKI: 0
PSCL5 PREFETCH  REQUESTED:          0  ISSUED:          0  USEFUL:          0  USELESS:          0
PSCL5 USEFUL LOAD PREFETCHES:          0 PREFETCH ISSUED TO LOWER LEVEL:          0  ACCURACY: -nan
PSCL5 TIMELY PREFETCHES:          0 LATE PREFETCHES: 0 DROPPED PREFETCHES: 0
PSCL5 PREFETCHES SAME FILL-ORIGIN LEVEL: 0 DIFFERENT FILL-ORIGIN LEVEL: 0

PSCL4 TOTAL     ACCESS:      20282  HIT:      20081  MISS:        201  HIT %:     99.009  MISS %:   0.991027   MPKI: 0.00402
PSCL4 LOAD TRANSLATION ACCESS:      13233  HIT:      13032  MISS:        201  HIT %:    98.4811  MISS %:    1.51893   MPKI: 0.00402
PSCL4 TRANSLATION FROM L1D PREFETCHER ACCESS:       7049  HIT:       7049  MISS:          0  HIT %:        100  MISS %:          0   MPKI: 0
PSCL4 PREFETCH  REQUESTED:          0  ISSUED:          0  USEFUL:          0  USELESS:          0
PSCL4 USEFUL LOAD PREFETCHES:          0 PREFETCH ISSUED TO LOWER LEVEL:          0  ACCURACY: -nan
PSCL4 TIMELY PREFETCHES:          0 LATE PREFETCHES: 0 DROPPED PREFETCHES: 0
PSCL4 PREFETCHES SAME FILL-ORIGIN LEVEL: 0 DIFFERENT FILL-ORIGIN LEVEL: 0

PSCL3 TOTAL     ACCESS:      21534  HIT:      21330  MISS:        204  HIT %:    99.0527  MISS %:   0.947339   MPKI: 0.00408
PSCL3 LOAD TRANSLATION ACCESS:      14201  HIT:      13997  MISS:        204  HIT %:    98.5635  MISS %:    1.43652   MPKI: 0.00408
PSCL3 TRANSLATION FROM L1D PREFETCHER ACCESS:       7333  HIT:       7333  MISS:          0  HIT %:        100  MISS %:          0   MPKI: 0
PSCL3 PREFETCH  REQUESTED:          0  ISSUED:          0  USEFUL:          0  USELESS:          0
PSCL3 USEFUL LOAD PREFETCHES:          0 PREFETCH ISSUED TO LOWER LEVEL:          0  ACCURACY: -nan
PSCL3 TIMELY PREFETCHES:          0 LATE PREFETCHES: 0 DROPPED PREFETCHES: 0
PSCL3 PREFETCHES SAME FILL-ORIGIN LEVEL: 0 DIFFERENT FILL-ORIGIN LEVEL: 0

PSCL2 TOTAL     ACCESS:      18414  HIT:      10456  MISS:       7958  HIT %:    56.7829  MISS %:    43.2171   MPKI: 0.15916
PSCL2 LOAD TRANSLATION ACCESS:      15001  HIT:       7043  MISS:       7958  HIT %:    46.9502  MISS %:    53.0498   MPKI: 0.15916
PSCL2 TRANSLATION FROM L1D PREFETCHER ACCESS:       3413  HIT:       3413  MISS:          0  HIT %:        100  MISS %:          0   MPKI: 0
PSCL2 PREFETCH  REQUESTED:          0  ISSUED:          0  USEFUL:          0  USELESS:          0
PSCL2 USEFUL LOAD PREFETCHES:          0 PREFETCH ISSUED TO LOWER LEVEL:          0  ACCURACY: -nan
PSCL2 TIMELY PREFETCHES:          0 LATE PREFETCHES: 0 DROPPED PREFETCHES: 0
PSCL2 PREFETCHES SAME FILL-ORIGIN LEVEL: 0 DIFFERENT FILL-ORIGIN LEVEL: 0

LLC TOTAL     ACCESS:     447587  HIT:     404460  MISS:      43127  HIT %:    90.3646  MISS %:    9.63545   MPKI: 0.86254
LLC LOAD      ACCESS:     129105  HIT:     104617  MISS:      24488  HIT %:    81.0325  MISS %:    18.9675   MPKI: 0.48976
LLC RFO       ACCESS:      30140  HIT:      25935  MISS:       4205  HIT %:    86.0484  MISS %:    13.9516   MPKI: 0.0841
LLC PREFETCH  ACCESS:     235564  HIT:     222692  MISS:      12872  HIT %:    94.5357  MISS %:    5.46433   MPKI: 0.25744
LLC WRITEBACK ACCESS:      40770  HIT:      40421  MISS:        349  HIT %:     99.144  MISS %:   0.856022   MPKI: 0.00698
LLC LOAD TRANSLATION ACCESS:      11057  HIT:       9863  MISS:       1194  HIT %:    89.2014  MISS %:    10.7986   MPKI: 0.02388
LLC TRANSLATION FROM L1D PREFETCHER ACCESS:        951  HIT:        932  MISS:         19  HIT %:    98.0021  MISS %:     1.9979   MPKI: 0.00038
LLC PREFETCH  REQUESTED:          0  ISSUED:          0  USEFUL:       4882  USELESS:       4080
LLC USEFUL LOAD PREFETCHES:       4882 PREFETCH ISSUED TO LOWER LEVEL:      14680  ACCURACY: 33.2561
LLC TIMELY PREFETCHES:       4882 LATE PREFETCHES: 1808 DROPPED PREFETCHES: 0
LLC PREFETCHES SAME FILL-ORIGIN LEVEL: 12946 DIFFERENT FILL-ORIGIN LEVEL: 0
LLC AVERAGE MISS LATENCY: 141.313 cycles
LLC RQ	ACCESS:     171253	FORWARD:          0	MERGED:          0	TO_CACHE:     171253
LLC WQ	ACCESS:      40770	FORWARD:          0	MERGED:          0	TO_CACHE:      40770
LLC PQ	ACCESS:     242305	FORWARD:          0	MERGED:       1110	TO_CACHE:     241195

LLC Dense regions hint to LLC: 0

RAW hits: 1100365
Loads Generated: 12457406
Loads sent to L1D: 11357041
Stores Generated: 6987099
Stores sent to L1D: 6987103
Major fault: 0 Minor fault: 6261
Allocated PAGES: 6261
I-Shadow cache 408 bytes
Touched + WorthPF tables 6144 bytes 
MMA filter 174 bytes 
FNL filter 272 bytes 
TOTAL PREFETCHER STORAGE SIZE: 25174 bytes
CPU 0 L1I next line prefetcher final stats
 All Calls: 10577431
 Critical Calls: 182791
------------------
Depth Distribution
------------------
depth 0: 0
depth 1: 99479
depth 2: 43008
depth 3: 8963
depth 4: 1256
depth 5: 440
depth 6: 53
depth 7: 4
depth 8: 1
depth 9: 0
depth 10: 0
depth 11: 0
depth 12: 0
depth 13: 0
depth 14: 0
depth 15: 0
depth 16: 0
depth 17: 0
depth 18: 0
depth 19: 0
depth 20: 0
depth 21: 0
depth 22: 0
depth 23: 0
depth 24: 0
depth 25: 0
depth 26: 0
depth 27: 0
depth 28: 0
depth 29: 0
Total: 153204
-----------------------------
-----------------------------
	Captured at Filter
-----------------------------
depth 0: 0
depth 1: 19654
depth 2: 11309
depth 3: 2530
depth 4: 66
depth 5: 2
depth 6: 0
depth 7: 0
depth 8: 0
depth 9: 0
depth 10: 0
depth 11: 0
depth 12: 0
depth 13: 0
depth 14: 0
depth 15: 0
depth 16: 0
depth 17: 0
depth 18: 0
depth 19: 0
depth 20: 0
depth 21: 0
depth 22: 0
depth 23: 0
depth 24: 0
depth 25: 0
depth 26: 0
depth 27: 0
depth 28: 0
depth 29: 0
-----------------------------
-----------------------------
		Lost at Page
-----------------------------
depth 0: 0
depth 1: 3787
depth 2: 1444
depth 3: 552
depth 4: 80
depth 5: 40
depth 6: 7
depth 7: 0
depth 8: 0
depth 9: 0
depth 10: 0
depth 11: 0
depth 12: 0
depth 13: 0
depth 14: 0
depth 15: 0
depth 16: 0
depth 17: 0
depth 18: 0
depth 19: 0
depth 20: 0
depth 21: 0
depth 22: 0
depth 23: 0
depth 24: 0
depth 25: 0
depth 26: 0
depth 27: 0
depth 28: 0
depth 29: 0
-----------------------------
-----------------------------
	Lost due to PQ Size
-----------------------------
0
-----------------------------
ST read accesses: 138011
ST write accesses: 11166
PT read accesses: 1741291
PT write accesses: 151275
FILTER read accesses: 716056
FILTER write accesses: 408542
GHR read accesses: 127609
GHR write accesses: 5554
GHR counter read accesses: 1590890
GHR counter write accesses: 172594
ST tag read accesses: 61768655
ST tag write accesses: 8572381

DRAM Statistics
 CHANNEL 0
 RQ ROW_BUFFER_HIT:      13975  ROW_BUFFER_MISS:      28798
 DBUS_CONGESTED:        735
 WQ ROW_BUFFER_HIT:       1235  ROW_BUFFER_MISS:       3525  FULL:          0

 AVG_CONGESTED_CYCLE: 3
 All warmup complete: 2
Channel 0 Bank busy for read cycles: 0
Channel 0 Bank busy for write cycles: 0
Channel 0
Rank 0
0banks busy for read cycles: 76963815
0banks busy for write cycles: 2601
1banks busy for read cycles: 2383784
1banks busy for write cycles: 490735
2banks busy for read cycles: 613377
2banks busy for write cycles: 129505
3banks busy for read cycles: 232214
3banks busy for write cycles: 53033
4banks busy for read cycles: 70177
4banks busy for write cycles: 23926
5banks busy for read cycles: 26546
5banks busy for write cycles: 9985
6banks busy for read cycles: 13994
6banks busy for write cycles: 3919
7banks busy for read cycles: 11324
7banks busy for write cycles: 932
8banks busy for read cycles: 17660
8banks busy for write cycles: 6470

CPU 0 Branch Prediction Accuracy: 99.6894% MPKI: 0.58048 Average ROB Occupancy at Mispredict: 90.5295
Branch types
NOT_BRANCH: 40655503 81.311%
BRANCH_DIRECT_JUMP: 546483 1.09297%
BRANCH_INDIRECT: 172433 0.344866%
BRANCH_CONDITIONAL: 6207553 12.4151%
BRANCH_DIRECT_CALL: 1018497 2.03699%
BRANCH_INDIRECT_CALL: 190373 0.380746%
BRANCH_RETURN: 1208855 2.41771%
BRANCH_OTHER: 0 0%

DRAM PAGES: 1048576
Allocated PAGES: 6261
