
*** ChampSim Multicore Out-of-Order Simulator ***

Warmup Instructions: 50000000
Simulation Instructions: 50000000
Number of CPUs: 1
LLC sets: 2048
LLC ways: 16
Off-chip DRAM Size: 4096 MB Channels: 1 Width: 64-bit Data Rate: 6400 MT/s
CPU 0 runs ../IPC-traces//server_017.champsimtrace.xz
.xz
BTB has LRU replacement policy
ITLB has LRU replacement policy
DTLB has LRU replacement policy
STLB has LRU replacement policy
CPU 0 L1I next line prefetcher
L1I has LRU replacement policy
IP Table Entries: 64
L1D has LRU replacement policy
Initialize SRRIP state for L2C
Initialize DRRIP state for LLC
Heartbeat CPU 0 instructions: 10000000 cycles: 3175990 heartbeat IPC: 3.14862 cumulative IPC: 3.14862 (Simulation time: 0 hr 3 min 4 sec) 
Heartbeat CPU 0 instructions: 20000000 cycles: 6337770 heartbeat IPC: 3.16278 cumulative IPC: 3.15568 (Simulation time: 0 hr 6 min 14 sec) 
Heartbeat CPU 0 instructions: 30000002 cycles: 9508375 heartbeat IPC: 3.15397 cumulative IPC: 3.15511 (Simulation time: 0 hr 9 min 14 sec) 
Heartbeat CPU 0 instructions: 40000000 cycles: 12678207 heartbeat IPC: 3.15474 cumulative IPC: 3.15502 (Simulation time: 0 hr 12 min 22 sec) 
Heartbeat CPU 0 instructions: 50000000 cycles: 15868511 heartbeat IPC: 3.1345 cumulative IPC: 3.15089 (Simulation time: 0 hr 15 min 8 sec) 

Warmup complete CPU 0 instructions: 50000004 cycles: 15868512 (Simulation time: 0 hr 15 min 8 sec) 

Heartbeat CPU 0 instructions: 60000000 cycles: 44682036 heartbeat IPC: 0.347059 cumulative IPC: 0.347059 (Simulation time: 0 hr 20 min 12 sec) 
Heartbeat CPU 0 instructions: 70000000 cycles: 73853929 heartbeat IPC: 0.342796 cumulative IPC: 0.344914 (Simulation time: 0 hr 25 min 27 sec) 
Heartbeat CPU 0 instructions: 80000000 cycles: 102728789 heartbeat IPC: 0.346322 cumulative IPC: 0.345382 (Simulation time: 0 hr 31 min 45 sec) 
Heartbeat CPU 0 instructions: 90000003 cycles: 136471405 heartbeat IPC: 0.296361 cumulative IPC: 0.331667 (Simulation time: 0 hr 39 min 31 sec) 
Heartbeat CPU 0 instructions: 100000003 cycles: 169751864 heartbeat IPC: 0.300477 cumulative IPC: 0.324921 (Simulation time: 0 hr 47 min 10 sec) 
Finished CPU 0 instructions: 50000003 cycles: 153883369 cumulative IPC: 0.324921 (Simulation time: 0 hr 47 min 10 sec) 

ChampSim completed all CPUs

Region of Interest Statistics

CPU 0 cumulative IPC: 0.324921 instructions: 50000003 cycles: 153883369

CPU 0 Average Load ROB stall cycles: 4.13885e+07
CPU 0 Fraction of times ROB stalled by Loads: 46.1532
CPU 0 Percentage of Load stall cycles in Total stall cycles: 2.13043e+08
Issued all: 80625810
Issued LT all: 75232673
rob_not_full_when_issued_lt_all: 17115825
Issued LT one: 69602292
rob_not_full_when_issued_lt_one: 13195183
HPCA_2009 critical_dynamic_instances_0: 602994
HPCA_2009 unique_critical_ips_0: 4339
multiple_destinations_0: 0
load_to_same_dest_0: 0
low_issue_rate_0: 18219011
total_issue_rate_checked_count_0: 18956229
 Total stall cycles: 137134315
 Total load stall cycles: 292155645244894
Unique Load IPs: 6875
CPU 0 NUM of IPS identified critical: 0
CPU 0 Num of Load IPs stalling ROB: 0
Threshold modification factor: 0
Trouble in retire width: -nan
MaC = Marked as critical.
lt_50_percent_before_Mac: 0
gt_90_percent_before_Mac: 0
gt_75_percent_before_Mac: 0
gt_50_percent_before_Mac: 0
stall_proportion_bin_same_before_after: 0
stall_proportion_bin_lower_before_after: 0
stall_proportion_bin_upper_before_after: 0
average_stall_proportion_before: -nan
average_stall_proportion_after: -nan
Critical IP stalls, total frequency: 0
Non-critical IP stalls, total frequency: 0
Total Freq all stalling IPs: 0
Critical_IP_Detector_Accuracy_70: 0
Critical_IP_Detector_Accuracy_80: 0
Critical_IP_Detector_Accuracy_90: 0
Critical_IP_Detector_Coverage_70: 0
Critical_IP_Detector_Coverage_80: 0
Critical_IP_Detector_Coverage_90: 0
stat_90_percent_critical_ip_stalls_freq: 259292
stat_90_percent_non_critical_ip_stalls_freq: 18446744073709292324
AVERAGE_ROB_Occupancy_90_Percent_Critical_IP_Stalls: 316.462
AVERAGE_ROB_Occupancy_90_Percent_Non_Critical_IP_Stalls: 2.95892e-11
Critical_IP_ROB_Stalls_Bucket_0: 0
Non-critical_IP_ROB_Stalls_Bucket_0: 466479
Critical_IP_ROB_Stalls_Bucket_1: 0
Non-critical_IP_ROB_Stalls_Bucket_1: 593796
Critical_IP_ROB_Stalls_Bucket_2: 0
Non-critical_IP_ROB_Stalls_Bucket_2: 470803
Critical_IP_ROB_Stalls_Bucket_3: 0
Non-critical_IP_ROB_Stalls_Bucket_3: 319339
Critical_IP_ROB_Stalls_Bucket_4: 0
Non-critical_IP_ROB_Stalls_Bucket_4: 184477
Critical_IP_ROB_Stalls_Bucket_5: 0
Non-critical_IP_ROB_Stalls_Bucket_5: 161795
Critical_IP_ROB_Stalls_Bucket_6: 0
Non-critical_IP_ROB_Stalls_Bucket_6: 1061204
0 => IPs accounting for >50 percent of stalls, 1 => 55, 2 => 60, 3 => 65 and so on till 90.
percent50: inf num IPs:  1
percent55: inf num IPs: 1
percent60: inf num IPs: 1
percent65: inf num IPs: 1
percent70: inf num IPs: 1
percent75: inf num IPs: 1
percent80: inf num IPs: 1
percent85: inf num IPs: 1
percent90: inf num IPs: 1
Critical_ROB_Stalls_Percent_0_Bucket_0: 84
Non-critical_ROB_Stalls_Percent_0_Bucket_0: 466395
Critical_ROB_Stalls_Percent_0_Bucket_1: 3143
Non-critical_ROB_Stalls_Percent_0_Bucket_1: 590653
Critical_ROB_Stalls_Percent_0_Bucket_2: 9827
Non-critical_ROB_Stalls_Percent_0_Bucket_2: 460976
Critical_ROB_Stalls_Percent_0_Bucket_3: 17526
Non-critical_ROB_Stalls_Percent_0_Bucket_3: 301813
Critical_ROB_Stalls_Percent_0_Bucket_4: 12512
Non-critical_ROB_Stalls_Percent_0_Bucket_4: 171965
Critical_ROB_Stalls_Percent_0_Bucket_5: 13141
Non-critical_ROB_Stalls_Percent_0_Bucket_5: 148654
Critical_ROB_Stalls_Percent_0_Bucket_6: 203059
Non-critical_ROB_Stalls_Percent_0_Bucket_6: 858145
Critical_ROB_Stalls_Percent_1_Bucket_0: 84
Non-critical_ROB_Stalls_Percent_1_Bucket_0: 466395
Critical_ROB_Stalls_Percent_1_Bucket_1: 3143
Non-critical_ROB_Stalls_Percent_1_Bucket_1: 590653
Critical_ROB_Stalls_Percent_1_Bucket_2: 9827
Non-critical_ROB_Stalls_Percent_1_Bucket_2: 460976
Critical_ROB_Stalls_Percent_1_Bucket_3: 17526
Non-critical_ROB_Stalls_Percent_1_Bucket_3: 301813
Critical_ROB_Stalls_Percent_1_Bucket_4: 12512
Non-critical_ROB_Stalls_Percent_1_Bucket_4: 171965
Critical_ROB_Stalls_Percent_1_Bucket_5: 13141
Non-critical_ROB_Stalls_Percent_1_Bucket_5: 148654
Critical_ROB_Stalls_Percent_1_Bucket_6: 203059
Non-critical_ROB_Stalls_Percent_1_Bucket_6: 858145
Critical_ROB_Stalls_Percent_2_Bucket_0: 84
Non-critical_ROB_Stalls_Percent_2_Bucket_0: 466395
Critical_ROB_Stalls_Percent_2_Bucket_1: 3143
Non-critical_ROB_Stalls_Percent_2_Bucket_1: 590653
Critical_ROB_Stalls_Percent_2_Bucket_2: 9827
Non-critical_ROB_Stalls_Percent_2_Bucket_2: 460976
Critical_ROB_Stalls_Percent_2_Bucket_3: 17526
Non-critical_ROB_Stalls_Percent_2_Bucket_3: 301813
Critical_ROB_Stalls_Percent_2_Bucket_4: 12512
Non-critical_ROB_Stalls_Percent_2_Bucket_4: 171965
Critical_ROB_Stalls_Percent_2_Bucket_5: 13141
Non-critical_ROB_Stalls_Percent_2_Bucket_5: 148654
Critical_ROB_Stalls_Percent_2_Bucket_6: 203059
Non-critical_ROB_Stalls_Percent_2_Bucket_6: 858145
Critical_ROB_Stalls_Percent_3_Bucket_0: 84
Non-critical_ROB_Stalls_Percent_3_Bucket_0: 466395
Critical_ROB_Stalls_Percent_3_Bucket_1: 3143
Non-critical_ROB_Stalls_Percent_3_Bucket_1: 590653
Critical_ROB_Stalls_Percent_3_Bucket_2: 9827
Non-critical_ROB_Stalls_Percent_3_Bucket_2: 460976
Critical_ROB_Stalls_Percent_3_Bucket_3: 17526
Non-critical_ROB_Stalls_Percent_3_Bucket_3: 301813
Critical_ROB_Stalls_Percent_3_Bucket_4: 12512
Non-critical_ROB_Stalls_Percent_3_Bucket_4: 171965
Critical_ROB_Stalls_Percent_3_Bucket_5: 13141
Non-critical_ROB_Stalls_Percent_3_Bucket_5: 148654
Critical_ROB_Stalls_Percent_3_Bucket_6: 203059
Non-critical_ROB_Stalls_Percent_3_Bucket_6: 858145
Critical_ROB_Stalls_Percent_4_Bucket_0: 84
Non-critical_ROB_Stalls_Percent_4_Bucket_0: 466395
Critical_ROB_Stalls_Percent_4_Bucket_1: 3143
Non-critical_ROB_Stalls_Percent_4_Bucket_1: 590653
Critical_ROB_Stalls_Percent_4_Bucket_2: 9827
Non-critical_ROB_Stalls_Percent_4_Bucket_2: 460976
Critical_ROB_Stalls_Percent_4_Bucket_3: 17526
Non-critical_ROB_Stalls_Percent_4_Bucket_3: 301813
Critical_ROB_Stalls_Percent_4_Bucket_4: 12512
Non-critical_ROB_Stalls_Percent_4_Bucket_4: 171965
Critical_ROB_Stalls_Percent_4_Bucket_5: 13141
Non-critical_ROB_Stalls_Percent_4_Bucket_5: 148654
Critical_ROB_Stalls_Percent_4_Bucket_6: 203059
Non-critical_ROB_Stalls_Percent_4_Bucket_6: 858145
Critical_ROB_Stalls_Percent_5_Bucket_0: 84
Non-critical_ROB_Stalls_Percent_5_Bucket_0: 466395
Critical_ROB_Stalls_Percent_5_Bucket_1: 3143
Non-critical_ROB_Stalls_Percent_5_Bucket_1: 590653
Critical_ROB_Stalls_Percent_5_Bucket_2: 9827
Non-critical_ROB_Stalls_Percent_5_Bucket_2: 460976
Critical_ROB_Stalls_Percent_5_Bucket_3: 17526
Non-critical_ROB_Stalls_Percent_5_Bucket_3: 301813
Critical_ROB_Stalls_Percent_5_Bucket_4: 12512
Non-critical_ROB_Stalls_Percent_5_Bucket_4: 171965
Critical_ROB_Stalls_Percent_5_Bucket_5: 13141
Non-critical_ROB_Stalls_Percent_5_Bucket_5: 148654
Critical_ROB_Stalls_Percent_5_Bucket_6: 203059
Non-critical_ROB_Stalls_Percent_5_Bucket_6: 858145
Critical_ROB_Stalls_Percent_6_Bucket_0: 84
Non-critical_ROB_Stalls_Percent_6_Bucket_0: 466395
Critical_ROB_Stalls_Percent_6_Bucket_1: 3143
Non-critical_ROB_Stalls_Percent_6_Bucket_1: 590653
Critical_ROB_Stalls_Percent_6_Bucket_2: 9827
Non-critical_ROB_Stalls_Percent_6_Bucket_2: 460976
Critical_ROB_Stalls_Percent_6_Bucket_3: 17526
Non-critical_ROB_Stalls_Percent_6_Bucket_3: 301813
Critical_ROB_Stalls_Percent_6_Bucket_4: 12512
Non-critical_ROB_Stalls_Percent_6_Bucket_4: 171965
Critical_ROB_Stalls_Percent_6_Bucket_5: 13141
Non-critical_ROB_Stalls_Percent_6_Bucket_5: 148654
Critical_ROB_Stalls_Percent_6_Bucket_6: 203059
Non-critical_ROB_Stalls_Percent_6_Bucket_6: 858145
Critical_ROB_Stalls_Percent_7_Bucket_0: 84
Non-critical_ROB_Stalls_Percent_7_Bucket_0: 466395
Critical_ROB_Stalls_Percent_7_Bucket_1: 3143
Non-critical_ROB_Stalls_Percent_7_Bucket_1: 590653
Critical_ROB_Stalls_Percent_7_Bucket_2: 9827
Non-critical_ROB_Stalls_Percent_7_Bucket_2: 460976
Critical_ROB_Stalls_Percent_7_Bucket_3: 17526
Non-critical_ROB_Stalls_Percent_7_Bucket_3: 301813
Critical_ROB_Stalls_Percent_7_Bucket_4: 12512
Non-critical_ROB_Stalls_Percent_7_Bucket_4: 171965
Critical_ROB_Stalls_Percent_7_Bucket_5: 13141
Non-critical_ROB_Stalls_Percent_7_Bucket_5: 148654
Critical_ROB_Stalls_Percent_7_Bucket_6: 203059
Non-critical_ROB_Stalls_Percent_7_Bucket_6: 858145
Critical_ROB_Stalls_Percent_8_Bucket_0: 84
Non-critical_ROB_Stalls_Percent_8_Bucket_0: 466395
Critical_ROB_Stalls_Percent_8_Bucket_1: 3143
Non-critical_ROB_Stalls_Percent_8_Bucket_1: 590653
Critical_ROB_Stalls_Percent_8_Bucket_2: 9827
Non-critical_ROB_Stalls_Percent_8_Bucket_2: 460976
Critical_ROB_Stalls_Percent_8_Bucket_3: 17526
Non-critical_ROB_Stalls_Percent_8_Bucket_3: 301813
Critical_ROB_Stalls_Percent_8_Bucket_4: 12512
Non-critical_ROB_Stalls_Percent_8_Bucket_4: 171965
Critical_ROB_Stalls_Percent_8_Bucket_5: 13141
Non-critical_ROB_Stalls_Percent_8_Bucket_5: 148654
Critical_ROB_Stalls_Percent_8_Bucket_6: 203059
Non-critical_ROB_Stalls_Percent_8_Bucket_6: 858145
Average ROB occupancy Load Stall Begin: 183.736
Average ROB occupancy Load Stall End: 192.726
Min ROB occupancy Load Stall Begin: 1
Max ROB occupancy Load Stall Begin: 352
Min ROB occupancy Load Stall End: 1
Max ROB occupancy Load Stall End: 352
Average ROB occupancy Critical Load Stall Begin: -nan
Average ROB occupancy Critical Load Stall End: -nan
Min ROB occupancy Critical Load Stall Begin: 400
Max ROB occupancy Critical Load Stall Begin: 0
Min ROB occupancy Critical Load Stall End: 400
Max ROB occupancy Critical Load Stall End: 0
 ROB Load Stall Begin Bucket Count 0: 660528
 ROB Load Stall End Bucket Count 0: 466479
 ROB Critical Load Stall Begin Bucket Count 0: 0
 ROB Critical Load Stall End Bucket Count 0: 0
 ROB Load Stall Begin Bucket Count 1: 542766
 ROB Load Stall End Bucket Count 1: 593796
 ROB Critical Load Stall Begin Bucket Count 1: 0
 ROB Critical Load Stall End Bucket Count 1: 0
 ROB Load Stall Begin Bucket Count 2: 428675
 ROB Load Stall End Bucket Count 2: 470803
 ROB Critical Load Stall Begin Bucket Count 2: 0
 ROB Critical Load Stall End Bucket Count 2: 0
 ROB Load Stall Begin Bucket Count 3: 267774
 ROB Load Stall End Bucket Count 3: 319339
 ROB Critical Load Stall Begin Bucket Count 3: 0
 ROB Critical Load Stall End Bucket Count 3: 0
 ROB Load Stall Begin Bucket Count 4: 169944
 ROB Load Stall End Bucket Count 4: 184477
 ROB Critical Load Stall Begin Bucket Count 4: 0
 ROB Critical Load Stall End Bucket Count 4: 0
 ROB Load Stall Begin Bucket Count 5: 157899
 ROB Load Stall End Bucket Count 5: 161795
 ROB Critical Load Stall Begin Bucket Count 5: 0
 ROB Critical Load Stall End Bucket Count 5: 0
 ROB Load Stall Begin Bucket Count 6: 1030307
 ROB Load Stall End Bucket Count 6: 1061204
 ROB Critical Load Stall Begin Bucket Count 6: 0
 ROB Critical Load Stall End Bucket Count 6: 0
PIST Tag Read Accesses: 0
PIST Read Accesses: 0
PIST Tag Write Accesses: 0
PIST Write Accesses: 0
Criticality detector called times: 0
Max global_stall_cycles_count: 0
Threshold Modified: 0 times, factor: 0
ITLB TOTAL     ACCESS:   10101489  HIT:    9669140  MISS:     432349  HIT %:    95.7199  MISS %:    4.28005   MPKI: 8.64698
ITLB LOAD TRANSLATION ACCESS:    8384386  HIT:    8374202  MISS:      10184  HIT %:    99.8785  MISS %:   0.121464   MPKI: 0.20368
ITLB TRANSLATION FROM L1D PREFETCHER ACCESS:    1717103  HIT:    1294938  MISS:     422165  HIT %:    75.4141  MISS %:    24.5859   MPKI: 8.4433
ITLB PREFETCH  REQUESTED:          0  ISSUED:          0  USEFUL:     379414  USELESS:      42746
ITLB USEFUL LOAD PREFETCHES:     379414 PREFETCH ISSUED TO LOWER LEVEL:          0  ACCURACY: inf
ITLB TIMELY PREFETCHES:     379414 LATE PREFETCHES: 358 DROPPED PREFETCHES: 89
ITLB PREFETCHES SAME FILL-ORIGIN LEVEL: 0 DIFFERENT FILL-ORIGIN LEVEL: 0
ITLB AVERAGE MISS LATENCY: 70820.7 cycles
ITLB RQ	ACCESS:   14255327	FORWARD:          0	MERGED:    4102906	TO_CACHE:   10152421

DTLB TOTAL     ACCESS:   10628292  HIT:   10188269  MISS:     440023  HIT %:    95.8599  MISS %:    4.14011   MPKI: 8.80046
DTLB LOAD TRANSLATION ACCESS:   10628292  HIT:   10188269  MISS:     440023  HIT %:    95.8599  MISS %:    4.14011   MPKI: 8.80046
DTLB PREFETCH  REQUESTED:          0  ISSUED:          0  USEFUL:          0  USELESS:          0
DTLB USEFUL LOAD PREFETCHES:          0 PREFETCH ISSUED TO LOWER LEVEL:          0  ACCURACY: -nan
DTLB TIMELY PREFETCHES:          0 LATE PREFETCHES: 0 DROPPED PREFETCHES: 0
DTLB PREFETCHES SAME FILL-ORIGIN LEVEL: 0 DIFFERENT FILL-ORIGIN LEVEL: 0
DTLB AVERAGE MISS LATENCY: 24.5248 cycles
DTLB RQ	ACCESS:   15438151	FORWARD:          0	MERGED:    4734631	TO_CACHE:   10703520

STLB TOTAL     ACCESS:     879202  HIT:     815771  MISS:      63431  HIT %:    92.7854  MISS %:    7.21461   MPKI: 1.26862
STLB LOAD TRANSLATION ACCESS:     449849  HIT:     387425  MISS:      62424  HIT %:    86.1233  MISS %:    13.8767   MPKI: 1.24848
STLB TRANSLATION FROM L1D PREFETCHER ACCESS:     429353  HIT:     428346  MISS:       1007  HIT %:    99.7655  MISS %:   0.234539   MPKI: 0.02014
STLB PREFETCH  REQUESTED:          0  ISSUED:          0  USEFUL:        757  USELESS:        250
STLB USEFUL LOAD PREFETCHES:        757 PREFETCH ISSUED TO LOWER LEVEL:          0  ACCURACY: inf
STLB TIMELY PREFETCHES:        757 LATE PREFETCHES: 0 DROPPED PREFETCHES: 89
STLB PREFETCHES SAME FILL-ORIGIN LEVEL: 0 DIFFERENT FILL-ORIGIN LEVEL: 0
STLB AVERAGE MISS LATENCY: 112.402 cycles
STLB RQ	ACCESS:     901262	FORWARD:          0	MERGED:      21971	TO_CACHE:     879291

STLB Hit, L1D data hit: 0
STLB Hit, L2C data hit: 0
STLB Hit, LLC data hit: 0
STLB Hit, LLC data miss: 0
STLB STLB hints to L2: 0
L1D TOTAL     ACCESS:   13616731  HIT:   11861010  MISS:    1755721  HIT %:    87.1061  MISS %:    12.8939   MPKI: 35.1144
L1D LOAD      ACCESS:    7322632  HIT:    6459886  MISS:     862746  HIT %:    88.2181  MISS %:    11.7819   MPKI: 17.2549
L1D RFO       ACCESS:    6266149  HIT:    5393800  MISS:     872349  HIT %:    86.0784  MISS %:    13.9216   MPKI: 17.447
L1D PREFETCH  ACCESS:      27950  HIT:       7324  MISS:      20626  HIT %:    26.2039  MISS %:    73.7961   MPKI: 0.41252
L1D PREFETCH  REQUESTED:      57663  ISSUED:      57605  USEFUL:       3555  USELESS:      17079
L1D USEFUL LOAD PREFETCHES:       3555 PREFETCH ISSUED TO LOWER LEVEL:      20910  ACCURACY: 17.0014
L1D TIMELY PREFETCHES:       3555 LATE PREFETCHES: 279 DROPPED PREFETCHES: 0
L1D PREFETCHES SAME FILL-ORIGIN LEVEL: 20910 DIFFERENT FILL-ORIGIN LEVEL: 0
L1D AVERAGE MISS LATENCY: 13649.3 cycles
L1D RQ	ACCESS:   10780941	FORWARD:          0	MERGED:    3311567	TO_CACHE:    7360485
L1D WQ	ACCESS:    8175288	FORWARD:     108892	MERGED:      97622	TO_CACHE:    8077666
L1D PQ	ACCESS:      28804	FORWARD:          0	MERGED:          0	TO_CACHE:      28801

L1D UNIQUE REGIONS ACCESSED: 0
L1D REGIONS CONFLICTS: 0
L1D Cross Page Prefetch Requests: 0
L1D Same Page Prefetch Requests: 455699
L1D ROI Sum of L1D PQ occupancy: 432908
L1D PREFETCHES PUSHED FROM L2C: 0
L1I TOTAL     ACCESS:   14189194  HIT:   11372207  MISS:    2816987  HIT %:     80.147  MISS %:     19.853   MPKI: 56.3397
L1I LOAD      ACCESS:    9763858  HIT:    9741665  MISS:      22193  HIT %:    99.7727  MISS %:   0.227297   MPKI: 0.44386
L1I PREFETCH  ACCESS:    4425336  HIT:    1630542  MISS:    2794794  HIT %:    36.8456  MISS %:    63.1544   MPKI: 55.8959
L1I PREFETCH  REQUESTED:    4643925  ISSUED:    4635317  USEFUL:    2337380  USELESS:     457398
L1I USEFUL LOAD PREFETCHES:    2337380 PREFETCH ISSUED TO LOWER LEVEL:    2804256  ACCURACY: 83.3512
L1I TIMELY PREFETCHES:    2337380 LATE PREFETCHES: 9462 DROPPED PREFETCHES: 155
L1I PREFETCHES SAME FILL-ORIGIN LEVEL: 2804256 DIFFERENT FILL-ORIGIN LEVEL: 0
L1I AVERAGE MISS LATENCY: 357727 cycles
L1I RQ	ACCESS:   14069152	FORWARD:          0	MERGED:    4300298	TO_CACHE:    9768854
L1I PQ	ACCESS:    4635317	FORWARD:          0	MERGED:     148844	TO_CACHE:    4486473

BTB TOTAL     ACCESS:    5420737  HIT:    5179354  MISS:     241383  HIT %:     95.547  MISS %:    4.45296   MPKI: 4.82766
BTB BRANCH_DIRECT_JUMP	ACCESS:     464500  HIT:     462787  MISS:       1713
BTB BRANCH_INDIRECT	ACCESS:      45704  HIT:      45540  MISS:        164
BTB BRANCH_CONDITIONAL	ACCESS:    3156565  HIT:    3151071  MISS:       5494
BTB BRANCH_DIRECT_CALL	ACCESS:     675450  HIT:     671839  MISS:       3611
BTB BRANCH_INDIRECT_CALL	ACCESS:     201532  HIT:     175397  MISS:      26135
BTB BRANCH_RETURN	ACCESS:     876986  HIT:     672720  MISS:     204266
BTB BRANCH_OTHER ACCESS:          0  HIT:          0  MISS:          0

L2C TOTAL     ACCESS:    5772286  HIT:    4019387  MISS:    1752899  HIT %:    69.6325  MISS %:    30.3675   MPKI: 35.058
L2C LOAD      ACCESS:     875188  HIT:     187364  MISS:     687824  HIT %:    21.4084  MISS %:    78.5916   MPKI: 13.7565
L2C DATA LOAD MPKI: 13.6437
L2C INSTRUCTION LOAD MPKI: 0.11278
L2C RFO       ACCESS:     872342  HIT:      35810  MISS:     836532  HIT %:    4.10504  MISS %:     95.895   MPKI: 16.7306
L2C PREFETCH  ACCESS:    2825166  HIT:    2671336  MISS:     153830  HIT %:     94.555  MISS %:    5.44499   MPKI: 3.0766
L2C DATA PREFETCH MPKI: 0.40014
L2C INSTRUCTION PREFETCH MPKI: 2.67646
L2C WRITEBACK ACCESS:    1110693  HIT:    1066878  MISS:      43815  HIT %:    96.0552  MISS %:    3.94483   MPKI: 0.8763
L2C LOAD TRANSLATION ACCESS:      87253  HIT:      57381  MISS:      29872  HIT %:    65.7639  MISS %:    34.2361   MPKI: 0.59744
L2C TRANSLATION FROM L1D PREFETCHER ACCESS:       1644  HIT:        618  MISS:       1026  HIT %:    37.5912  MISS %:    62.4088   MPKI: 0.02052
L2C PREFETCH  REQUESTED:          0  ISSUED:          0  USEFUL:       2572  USELESS:     153379
L2C USEFUL LOAD PREFETCHES:       2572 PREFETCH ISSUED TO LOWER LEVEL:     153830  ACCURACY: 1.67198
L2C TIMELY PREFETCHES:       2572 LATE PREFETCHES: 0 DROPPED PREFETCHES: 0
L2C PREFETCHES SAME FILL-ORIGIN LEVEL: 0 DIFFERENT FILL-ORIGIN LEVEL: 0
L2C AVERAGE MISS LATENCY: 163.672 cycles
L2C RQ	ACCESS:    1836440	FORWARD:          0	MERGED:          0	TO_CACHE:    1836428
L2C WQ	ACCESS:    1110693	FORWARD:         12	MERGED:          0	TO_CACHE:    1110693
L2C PQ	ACCESS:    2825166	FORWARD:          0	MERGED:          0	TO_CACHE:    2825166

L2C Instructions Evicting Data 125609
L2C Translations Evicting Data 27631
L2C Data Evicting Data 1388869
L2C Instructions Evicting Instructions 11075
L2C Translations Evicting Instructions 2833
L2C Data Evicting Instructions 122801
L2C Instructions Evicting Translations 2778
L2C Translations Evicting Translations 434
L2C Data Evicting Translations 27054
L2C Dense regions hint from L2: 0
PSCL5 TOTAL     ACCESS:      63520  HIT:      63520  MISS:          0  HIT %:        100  MISS %:          0   MPKI: 0
PSCL5 LOAD TRANSLATION ACCESS:      62424  HIT:      62424  MISS:          0  HIT %:        100  MISS %:          0   MPKI: 0
PSCL5 TRANSLATION FROM L1D PREFETCHER ACCESS:       1096  HIT:       1096  MISS:          0  HIT %:        100  MISS %:          0   MPKI: 0
PSCL5 PREFETCH  REQUESTED:          0  ISSUED:          0  USEFUL:          0  USELESS:          0
PSCL5 USEFUL LOAD PREFETCHES:          0 PREFETCH ISSUED TO LOWER LEVEL:          0  ACCURACY: -nan
PSCL5 TIMELY PREFETCHES:          0 LATE PREFETCHES: 0 DROPPED PREFETCHES: 0
PSCL5 PREFETCHES SAME FILL-ORIGIN LEVEL: 0 DIFFERENT FILL-ORIGIN LEVEL: 0

PSCL4 TOTAL     ACCESS:      36261  HIT:      36131  MISS:        130  HIT %:    99.6415  MISS %:   0.358512   MPKI: 0.0026
PSCL4 LOAD TRANSLATION ACCESS:      35324  HIT:      35194  MISS:        130  HIT %:     99.632  MISS %:   0.368022   MPKI: 0.0026
PSCL4 TRANSLATION FROM L1D PREFETCHER ACCESS:        937  HIT:        937  MISS:          0  HIT %:        100  MISS %:          0   MPKI: 0
PSCL4 PREFETCH  REQUESTED:          0  ISSUED:          0  USEFUL:          0  USELESS:          0
PSCL4 USEFUL LOAD PREFETCHES:          0 PREFETCH ISSUED TO LOWER LEVEL:          0  ACCURACY: -nan
PSCL4 TIMELY PREFETCHES:          0 LATE PREFETCHES: 0 DROPPED PREFETCHES: 0
PSCL4 PREFETCHES SAME FILL-ORIGIN LEVEL: 0 DIFFERENT FILL-ORIGIN LEVEL: 0

PSCL3 TOTAL     ACCESS:      63268  HIT:      62782  MISS:        486  HIT %:    99.2318  MISS %:   0.768161   MPKI: 0.00972
PSCL3 LOAD TRANSLATION ACCESS:      62315  HIT:      61829  MISS:        486  HIT %:    99.2201  MISS %:   0.779909   MPKI: 0.00972
PSCL3 TRANSLATION FROM L1D PREFETCHER ACCESS:        953  HIT:        953  MISS:          0  HIT %:        100  MISS %:          0   MPKI: 0
PSCL3 PREFETCH  REQUESTED:          0  ISSUED:          0  USEFUL:          0  USELESS:          0
PSCL3 USEFUL LOAD PREFETCHES:          0 PREFETCH ISSUED TO LOWER LEVEL:          0  ACCURACY: -nan
PSCL3 TIMELY PREFETCHES:          0 LATE PREFETCHES: 0 DROPPED PREFETCHES: 0
PSCL3 PREFETCHES SAME FILL-ORIGIN LEVEL: 0 DIFFERENT FILL-ORIGIN LEVEL: 0

PSCL2 TOTAL     ACCESS:      63437  HIT:      38720  MISS:      24717  HIT %:    61.0369  MISS %:    38.9631   MPKI: 0.49434
PSCL2 LOAD TRANSLATION ACCESS:      62762  HIT:      38045  MISS:      24717  HIT %:    60.6179  MISS %:    39.3821   MPKI: 0.49434
PSCL2 TRANSLATION FROM L1D PREFETCHER ACCESS:        675  HIT:        675  MISS:          0  HIT %:        100  MISS %:          0   MPKI: 0
PSCL2 PREFETCH  REQUESTED:          0  ISSUED:          0  USEFUL:          0  USELESS:          0
PSCL2 USEFUL LOAD PREFETCHES:          0 PREFETCH ISSUED TO LOWER LEVEL:          0  ACCURACY: -nan
PSCL2 TIMELY PREFETCHES:          0 LATE PREFETCHES: 0 DROPPED PREFETCHES: 0
PSCL2 PREFETCHES SAME FILL-ORIGIN LEVEL: 0 DIFFERENT FILL-ORIGIN LEVEL: 0

LLC TOTAL     ACCESS:    2745890  HIT:     952937  MISS:    1792953  HIT %:    34.7041  MISS %:    65.2959   MPKI: 35.8591
LLC LOAD      ACCESS:     687824  HIT:     248050  MISS:     439774  HIT %:     36.063  MISS %:     63.937   MPKI: 8.79548
LLC RFO       ACCESS:     836532  HIT:     219679  MISS:     616853  HIT %:    26.2607  MISS %:    73.7393   MPKI: 12.3371
LLC PREFETCH  ACCESS:     153830  HIT:     113709  MISS:      40121  HIT %:    73.9186  MISS %:    26.0814   MPKI: 0.80242
LLC WRITEBACK ACCESS:    1036806  HIT:     358225  MISS:     678581  HIT %:    34.5508  MISS %:    65.4492   MPKI: 13.5716
LLC LOAD TRANSLATION ACCESS:      29872  HIT:      12855  MISS:      17017  HIT %:    43.0336  MISS %:    56.9664   MPKI: 0.34034
LLC TRANSLATION FROM L1D PREFETCHER ACCESS:       1026  HIT:        419  MISS:        607  HIT %:    40.8382  MISS %:    59.1618   MPKI: 0.01214
LLC PREFETCH  REQUESTED:          0  ISSUED:          0  USEFUL:        312  USELESS:      40654
LLC USEFUL LOAD PREFETCHES:        312 PREFETCH ISSUED TO LOWER LEVEL:      40121  ACCURACY: 0.777648
LLC TIMELY PREFETCHES:        312 LATE PREFETCHES: 0 DROPPED PREFETCHES: 0
LLC PREFETCHES SAME FILL-ORIGIN LEVEL: 0 DIFFERENT FILL-ORIGIN LEVEL: 0
LLC AVERAGE MISS LATENCY: 130.148 cycles
LLC RQ	ACCESS:    1555255	FORWARD:          0	MERGED:          0	TO_CACHE:    1555255
LLC WQ	ACCESS:    1036806	FORWARD:          0	MERGED:          0	TO_CACHE:    1036806
LLC PQ	ACCESS:     153830	FORWARD:          0	MERGED:          0	TO_CACHE:     153830

LLC Dense regions hint to LLC: 0

RAW hits: 1307660
Loads Generated: 12088598
Loads sent to L1D: 10780941
Stores Generated: 8175295
Stores sent to L1D: 8175288
Major fault: 0 Minor fault: 24906
Allocated PAGES: 24906
I-Shadow cache 408 bytes
Touched + WorthPF tables 6144 bytes 
MMA filter 174 bytes 
FNL filter 272 bytes 
TOTAL PREFETCHER STORAGE SIZE: 25174 bytes
CPU 0 L1I next line prefetcher final stats

stream: 
stream:times selected: 359560
stream:pref_filled: 265770
stream:pref_useful: 220675
stream:pref_late: 2073
stream:misses: 966
stream:misses_by_poll: 0

CS: 
CS:times selected: 109032
CS:pref_filled: 1302
CS:pref_useful: 1217
CS:pref_late: 14
CS:misses: 425
CS:misses_by_poll: 0

CPLX: 
CPLX:times selected: 249725
CPLX:pref_filled: 36024
CPLX:pref_useful: 29490
CPLX:pref_late: 108
CPLX:misses: 4610
CPLX:misses_by_poll: 4

NL_L1: 
NL:times selected: 260
NL:pref_filled: 100
NL:pref_useful: 76
NL:pref_late: 10
NL:misses: 36
NL:misses_by_poll: 0

total selections: 718577
total_filled: 20626
total_useful: 3555
total_late: 2232
total_polluted: 4
total_misses_after_warmup: 10154
conflicts: 37202
Degree Incremented Times: 3638
Degree Decremented Times: 0

L1 IP Table Write Accesses: 61910
L1 IP Table Read Accesses: 24708
L1 RST Write Accesses: 13026
L1 RST Read Accesses: 26052
L1 CSPT Write Accesses: 13026
L1 CSPT Read Accesses: 35556
L1 RR Filter Tag Write Accesses: 28862
L1 RR Filter Tag Read Accesses: 2594596
L1 IP Table Tag Write Accesses: 102501
L1 IP Table Tag Read Accesses: 102501
L1 RST Tag Write Accesses: 0
L1 RST Tag Read Accesses: 115949
L1 RR Filter Write Accesses: 0
L1 RR Filter Read Accesses: 89685
test: 34781

DRAM Statistics
 CHANNEL 0
 RQ ROW_BUFFER_HIT:     452854  ROW_BUFFER_MISS:     661510
 DBUS_CONGESTED:        567
 WQ ROW_BUFFER_HIT:     300188  ROW_BUFFER_MISS:     413358  FULL:      12390

 AVG_CONGESTED_CYCLE: 3
 All warmup complete: 2
Channel 0 Bank busy for read cycles: 0
Channel 0 Bank busy for write cycles: 0
Channel 0
Rank 0
0banks busy for read cycles: 36841837
0banks busy for write cycles: 100939
1banks busy for read cycles: 48141079
1banks busy for write cycles: 21570132
2banks busy for read cycles: 10425566
2banks busy for write cycles: 10922446
3banks busy for read cycles: 1445332
3banks busy for write cycles: 4943148
4banks busy for read cycles: 1484234
4banks busy for write cycles: 2278970
5banks busy for read cycles: 498187
5banks busy for write cycles: 1257645
6banks busy for read cycles: 598813
6banks busy for write cycles: 883468
7banks busy for read cycles: 911889
7banks busy for write cycles: 1203923
8banks busy for read cycles: 3935865
8banks busy for write cycles: 6439897

CPU 0 Branch Prediction Accuracy: 99.2833% MPKI: 1.20566 Average ROB Occupancy at Mispredict: 138.502
Branch types
NOT_BRANCH: 41588317 83.1766%
BRANCH_DIRECT_JUMP: 464500 0.929%
BRANCH_INDIRECT: 45704 0.091408%
BRANCH_CONDITIONAL: 6147405 12.2948%
BRANCH_DIRECT_CALL: 675450 1.3509%
BRANCH_INDIRECT_CALL: 201532 0.403064%
BRANCH_RETURN: 876986 1.75397%
BRANCH_OTHER: 0 0%

DRAM PAGES: 1048576
Allocated PAGES: 24906
