
*** ChampSim Multicore Out-of-Order Simulator ***

Warmup Instructions: 50000000
Simulation Instructions: 50000000
Number of CPUs: 1
LLC sets: 2048
LLC ways: 16
Off-chip DRAM Size: 4096 MB Channels: 1 Width: 64-bit Data Rate: 6400 MT/s
CPU 0 runs ../IPC-traces//server_032.champsimtrace.xz
.xz
NUM_OF_IPS_IN_CRITICAL_IP_TRAINING: 64
NUM_OF_CRITICAL_IP_TRAINING_TABLE_WAYS: 2
NUM_OF_CRITICAL_IP_TRAINING_TABLE_SETS: 32
WOBBLY_CRITICAL_IP_CACHE_SETS: 32
WOBBLY_CRITICAL_IP_CACHE_WAYS: 4
BTB has LRU replacement policy
ITLB has LRU replacement policy
DTLB has LRU replacement policy
STLB has LRU replacement policy
CPU 0 L1I next line prefetcher
L1I has LRU replacement policy
IP Table Entries: 256
L1D has LRU replacement policy
Initialize SRRIP state for L2C
Initialize DRRIP state for LLC
Heartbeat CPU 0 instructions: 10000002 cycles: 2876026 heartbeat IPC: 3.47702 cumulative IPC: 3.47702 (Simulation time: 0 hr 6 min 25 sec) 
Heartbeat CPU 0 instructions: 20000003 cycles: 5750050 heartbeat IPC: 3.47944 cumulative IPC: 3.47823 (Simulation time: 0 hr 13 min 18 sec) 
Heartbeat CPU 0 instructions: 30000000 cycles: 8623043 heartbeat IPC: 3.48069 cumulative IPC: 3.47905 (Simulation time: 0 hr 20 min 20 sec) 
Heartbeat CPU 0 instructions: 40000000 cycles: 11497598 heartbeat IPC: 3.4788 cumulative IPC: 3.47899 (Simulation time: 0 hr 26 min 58 sec) 
Heartbeat CPU 0 instructions: 50000003 cycles: 14371529 heartbeat IPC: 3.47956 cumulative IPC: 3.4791 (Simulation time: 0 hr 33 min 6 sec) 

Warmup complete CPU 0 instructions: 50000003 cycles: 14371529 (Simulation time: 0 hr 33 min 6 sec) 

% increase in all ip prefetch 401.437
% increase in all ip prefetch 0.762363
Heartbeat CPU 0 instructions: 60000000 cycles: 30075111 heartbeat IPC: 0.636797 cumulative IPC: 0.636797 (Simulation time: 0 hr 38 min 47 sec) 
Heartbeat CPU 0 instructions: 70000001 cycles: 45758008 heartbeat IPC: 0.637637 cumulative IPC: 0.637217 (Simulation time: 0 hr 44 min 5 sec) 
*** Reached end of trace for Core: 0 Repeating trace: ../IPC-traces//server_032.champsimtrace.xz
Heartbeat CPU 0 instructions: 80000003 cycles: 61416937 heartbeat IPC: 0.638613 cumulative IPC: 0.637682 (Simulation time: 0 hr 48 min 49 sec) 
Heartbeat CPU 0 instructions: 90000002 cycles: 76987102 heartbeat IPC: 0.642254 cumulative IPC: 0.638819 (Simulation time: 0 hr 52 min 4 sec) 
Heartbeat CPU 0 instructions: 100000001 cycles: 92572478 heartbeat IPC: 0.641627 cumulative IPC: 0.639378 (Simulation time: 0 hr 55 min 20 sec) 
Finished CPU 0 instructions: 50000003 cycles: 78200963 cumulative IPC: 0.639378 (Simulation time: 0 hr 55 min 20 sec) 

ChampSim completed all CPUs

Region of Interest Statistics

CPU 0 cumulative IPC: 0.639378 instructions: 50000003 cycles: 78200963

CPU 0 Average Load ROB stall cycles: 1.87383e+07
CPU 0 Fraction of times ROB stalled by Loads: 34.986
CPU 0 Percentage of Load stall cycles in Total stall cycles: 2.78183e+08
Issued all: 27829835
Issued LT all: 22023876
rob_not_full_when_issued_lt_all: 21985752
Issued LT one: 17045205
rob_not_full_when_issued_lt_one: 17015846
 Total stall cycles: 65969307
 Total load stall cycles: 183515376941858
CPU 0 NUM of IPS identified critical: 0
CPU 0 Num of Load IPs stalling ROB: 8138
Threshold modification factor: -1
Max PIST entries: 64
Min PIST entries: 0
Avg PIST entries: 32
Trouble in retire width: 0.890783
MaC = Marked as critical.
lt_50_percent_before_Mac: 0
gt_90_percent_before_Mac: 0
gt_75_percent_before_Mac: 0
gt_50_percent_before_Mac: 0
stall_proportion_bin_same_before_after: 0
stall_proportion_bin_lower_before_after: 0
stall_proportion_bin_upper_before_after: 0
average_stall_proportion_before: -nan
average_stall_proportion_after: -nan
Critical IP stalls, total frequency: 0
Non-critical IP stalls, total frequency: 3426385
Total Freq all stalling IPs: 3426385
stat_90_percent_critical_ip_stalls_freq: 3084316
stat_90_percent_non_critical_ip_stalls_freq: 342069
Critical_IP_ROB_Stalls_Bucket_0: 0
Non-critical_IP_ROB_Stalls_Bucket_0: 2454157
Critical_IP_ROB_Stalls_Bucket_1: 0
Non-critical_IP_ROB_Stalls_Bucket_1: 741965
Critical_IP_ROB_Stalls_Bucket_2: 0
Non-critical_IP_ROB_Stalls_Bucket_2: 177981
Critical_IP_ROB_Stalls_Bucket_3: 0
Non-critical_IP_ROB_Stalls_Bucket_3: 35959
Critical_IP_ROB_Stalls_Bucket_4: 0
Non-critical_IP_ROB_Stalls_Bucket_4: 8366
Critical_IP_ROB_Stalls_Bucket_5: 0
Non-critical_IP_ROB_Stalls_Bucket_5: 4207
Critical_IP_ROB_Stalls_Bucket_6: 0
Non-critical_IP_ROB_Stalls_Bucket_6: 3750
0 => IPs accounting for >50 percent of stalls, 1 => 55, 2 => 60, 3 => 65 and so on till 90.
percent50: 50.0087 num IPs:  522
percent55: 55.0217 num IPs: 717
percent60: 60.0151 num IPs: 913
percent65: 65.0031 num IPs: 1109
percent70: 70.017 num IPs: 1306
percent75: 75.0232 num IPs: 1503
percent80: 80.0007 num IPs: 1701
percent85: 85.0024 num IPs: 1905
percent90: 90.0168 num IPs: 2123
Critical_ROB_Stalls_Percent_0_Bucket_0: 1063095
Non-critical_ROB_Stalls_Percent_0_Bucket_0: 1391062
Critical_ROB_Stalls_Percent_0_Bucket_1: 464306
Non-critical_ROB_Stalls_Percent_0_Bucket_1: 277659
Critical_ROB_Stalls_Percent_0_Bucket_2: 138942
Non-critical_ROB_Stalls_Percent_0_Bucket_2: 39039
Critical_ROB_Stalls_Percent_0_Bucket_3: 32488
Non-critical_ROB_Stalls_Percent_0_Bucket_3: 3471
Critical_ROB_Stalls_Percent_0_Bucket_4: 7801
Non-critical_ROB_Stalls_Percent_0_Bucket_4: 565
Critical_ROB_Stalls_Percent_0_Bucket_5: 3727
Non-critical_ROB_Stalls_Percent_0_Bucket_5: 480
Critical_ROB_Stalls_Percent_0_Bucket_6: 3130
Non-critical_ROB_Stalls_Percent_0_Bucket_6: 620
Critical_ROB_Stalls_Percent_1_Bucket_0: 1184381
Non-critical_ROB_Stalls_Percent_1_Bucket_0: 1269776
Critical_ROB_Stalls_Percent_1_Bucket_1: 505022
Non-critical_ROB_Stalls_Percent_1_Bucket_1: 236943
Critical_ROB_Stalls_Percent_1_Bucket_2: 148205
Non-critical_ROB_Stalls_Percent_1_Bucket_2: 29776
Critical_ROB_Stalls_Percent_1_Bucket_3: 32991
Non-critical_ROB_Stalls_Percent_1_Bucket_3: 2968
Critical_ROB_Stalls_Percent_1_Bucket_4: 7801
Non-critical_ROB_Stalls_Percent_1_Bucket_4: 565
Critical_ROB_Stalls_Percent_1_Bucket_5: 3727
Non-critical_ROB_Stalls_Percent_1_Bucket_5: 480
Critical_ROB_Stalls_Percent_1_Bucket_6: 3130
Non-critical_ROB_Stalls_Percent_1_Bucket_6: 620
Critical_ROB_Stalls_Percent_2_Bucket_0: 1298923
Non-critical_ROB_Stalls_Percent_2_Bucket_0: 1155234
Critical_ROB_Stalls_Percent_2_Bucket_1: 554779
Non-critical_ROB_Stalls_Percent_2_Bucket_1: 187186
Critical_ROB_Stalls_Percent_2_Bucket_2: 154783
Non-critical_ROB_Stalls_Percent_2_Bucket_2: 23198
Critical_ROB_Stalls_Percent_2_Bucket_3: 33211
Non-critical_ROB_Stalls_Percent_2_Bucket_3: 2748
Critical_ROB_Stalls_Percent_2_Bucket_4: 7801
Non-critical_ROB_Stalls_Percent_2_Bucket_4: 565
Critical_ROB_Stalls_Percent_2_Bucket_5: 3727
Non-critical_ROB_Stalls_Percent_2_Bucket_5: 480
Critical_ROB_Stalls_Percent_2_Bucket_6: 3130
Non-critical_ROB_Stalls_Percent_2_Bucket_6: 620
Critical_ROB_Stalls_Percent_3_Bucket_0: 1442017
Non-critical_ROB_Stalls_Percent_3_Bucket_0: 1012140
Critical_ROB_Stalls_Percent_3_Bucket_1: 580321
Non-critical_ROB_Stalls_Percent_3_Bucket_1: 161644
Critical_ROB_Stalls_Percent_3_Bucket_2: 157031
Non-critical_ROB_Stalls_Percent_3_Bucket_2: 20950
Critical_ROB_Stalls_Percent_3_Bucket_3: 33237
Non-critical_ROB_Stalls_Percent_3_Bucket_3: 2722
Critical_ROB_Stalls_Percent_3_Bucket_4: 7801
Non-critical_ROB_Stalls_Percent_3_Bucket_4: 565
Critical_ROB_Stalls_Percent_3_Bucket_5: 3728
Non-critical_ROB_Stalls_Percent_3_Bucket_5: 479
Critical_ROB_Stalls_Percent_3_Bucket_6: 3131
Non-critical_ROB_Stalls_Percent_3_Bucket_6: 619
Critical_ROB_Stalls_Percent_4_Bucket_0: 1575397
Non-critical_ROB_Stalls_Percent_4_Bucket_0: 878760
Critical_ROB_Stalls_Percent_4_Bucket_1: 615258
Non-critical_ROB_Stalls_Percent_4_Bucket_1: 126707
Critical_ROB_Stalls_Percent_4_Bucket_2: 160497
Non-critical_ROB_Stalls_Percent_4_Bucket_2: 17484
Critical_ROB_Stalls_Percent_4_Bucket_3: 33238
Non-critical_ROB_Stalls_Percent_4_Bucket_3: 2721
Critical_ROB_Stalls_Percent_4_Bucket_4: 7801
Non-critical_ROB_Stalls_Percent_4_Bucket_4: 565
Critical_ROB_Stalls_Percent_4_Bucket_5: 3728
Non-critical_ROB_Stalls_Percent_4_Bucket_5: 479
Critical_ROB_Stalls_Percent_4_Bucket_6: 3131
Non-critical_ROB_Stalls_Percent_4_Bucket_6: 619
Critical_ROB_Stalls_Percent_5_Bucket_0: 1728533
Non-critical_ROB_Stalls_Percent_5_Bucket_0: 725624
Critical_ROB_Stalls_Percent_5_Bucket_1: 632263
Non-critical_ROB_Stalls_Percent_5_Bucket_1: 109702
Critical_ROB_Stalls_Percent_5_Bucket_2: 161883
Non-critical_ROB_Stalls_Percent_5_Bucket_2: 16098
Critical_ROB_Stalls_Percent_5_Bucket_3: 33238
Non-critical_ROB_Stalls_Percent_5_Bucket_3: 2721
Critical_ROB_Stalls_Percent_5_Bucket_4: 7801
Non-critical_ROB_Stalls_Percent_5_Bucket_4: 565
Critical_ROB_Stalls_Percent_5_Bucket_5: 3728
Non-critical_ROB_Stalls_Percent_5_Bucket_5: 479
Critical_ROB_Stalls_Percent_5_Bucket_6: 3131
Non-critical_ROB_Stalls_Percent_5_Bucket_6: 619
Critical_ROB_Stalls_Percent_6_Bucket_0: 1875686
Non-critical_ROB_Stalls_Percent_6_Bucket_0: 578471
Critical_ROB_Stalls_Percent_6_Bucket_1: 652405
Non-critical_ROB_Stalls_Percent_6_Bucket_1: 89560
Critical_ROB_Stalls_Percent_6_Bucket_2: 164412
Non-critical_ROB_Stalls_Percent_6_Bucket_2: 13569
Critical_ROB_Stalls_Percent_6_Bucket_3: 33882
Non-critical_ROB_Stalls_Percent_6_Bucket_3: 2077
Critical_ROB_Stalls_Percent_6_Bucket_4: 7882
Non-critical_ROB_Stalls_Percent_6_Bucket_4: 484
Critical_ROB_Stalls_Percent_6_Bucket_5: 3728
Non-critical_ROB_Stalls_Percent_6_Bucket_5: 479
Critical_ROB_Stalls_Percent_6_Bucket_6: 3131
Non-critical_ROB_Stalls_Percent_6_Bucket_6: 619
Critical_ROB_Stalls_Percent_7_Bucket_0: 2024442
Non-critical_ROB_Stalls_Percent_7_Bucket_0: 429715
Critical_ROB_Stalls_Percent_7_Bucket_1: 672385
Non-critical_ROB_Stalls_Percent_7_Bucket_1: 69580
Critical_ROB_Stalls_Percent_7_Bucket_2: 166804
Non-critical_ROB_Stalls_Percent_7_Bucket_2: 11177
Critical_ROB_Stalls_Percent_7_Bucket_3: 34119
Non-critical_ROB_Stalls_Percent_7_Bucket_3: 1840
Critical_ROB_Stalls_Percent_7_Bucket_4: 7886
Non-critical_ROB_Stalls_Percent_7_Bucket_4: 480
Critical_ROB_Stalls_Percent_7_Bucket_5: 3729
Non-critical_ROB_Stalls_Percent_7_Bucket_5: 478
Critical_ROB_Stalls_Percent_7_Bucket_6: 3139
Non-critical_ROB_Stalls_Percent_7_Bucket_6: 611
Critical_ROB_Stalls_Percent_8_Bucket_0: 2178873
Non-critical_ROB_Stalls_Percent_8_Bucket_0: 275284
Critical_ROB_Stalls_Percent_8_Bucket_1: 688055
Non-critical_ROB_Stalls_Percent_8_Bucket_1: 53910
Critical_ROB_Stalls_Percent_8_Bucket_2: 168353
Non-critical_ROB_Stalls_Percent_8_Bucket_2: 9628
Critical_ROB_Stalls_Percent_8_Bucket_3: 34258
Non-critical_ROB_Stalls_Percent_8_Bucket_3: 1701
Critical_ROB_Stalls_Percent_8_Bucket_4: 7902
Non-critical_ROB_Stalls_Percent_8_Bucket_4: 464
Critical_ROB_Stalls_Percent_8_Bucket_5: 3736
Non-critical_ROB_Stalls_Percent_8_Bucket_5: 471
Critical_ROB_Stalls_Percent_8_Bucket_6: 3139
Non-critical_ROB_Stalls_Percent_8_Bucket_6: 611
Average ROB occupancy Load Stall Begin: 33.3338
Average ROB occupancy Load Stall End: 41.5828
Min ROB occupancy Load Stall Begin: 1
Max ROB occupancy Load Stall Begin: 352
Min ROB occupancy Load Stall End: 1
Max ROB occupancy Load Stall End: 352
Average ROB occupancy Critical Load Stall Begin: -nan
Average ROB occupancy Critical Load Stall End: -nan
Min ROB occupancy Critical Load Stall Begin: 400
Max ROB occupancy Critical Load Stall Begin: 0
Min ROB occupancy Critical Load Stall End: 400
Max ROB occupancy Critical Load Stall End: 0
 ROB Load Stall Begin Bucket Count 0: 2727988
 ROB Load Stall End Bucket Count 0: 2454157
 ROB Critical Load Stall Begin Bucket Count 0: 0
 ROB Critical Load Stall End Bucket Count 0: 0
 ROB Load Stall Begin Bucket Count 1: 536298
 ROB Load Stall End Bucket Count 1: 741965
 ROB Critical Load Stall Begin Bucket Count 1: 0
 ROB Critical Load Stall End Bucket Count 1: 0
 ROB Load Stall Begin Bucket Count 2: 120282
 ROB Load Stall End Bucket Count 2: 177981
 ROB Critical Load Stall Begin Bucket Count 2: 0
 ROB Critical Load Stall End Bucket Count 2: 0
 ROB Load Stall Begin Bucket Count 3: 27985
 ROB Load Stall End Bucket Count 3: 35959
 ROB Critical Load Stall Begin Bucket Count 3: 0
 ROB Critical Load Stall End Bucket Count 3: 0
 ROB Load Stall Begin Bucket Count 4: 7094
 ROB Load Stall End Bucket Count 4: 8366
 ROB Critical Load Stall Begin Bucket Count 4: 0
 ROB Critical Load Stall End Bucket Count 4: 0
 ROB Load Stall Begin Bucket Count 5: 3973
 ROB Load Stall End Bucket Count 5: 4207
 ROB Critical Load Stall Begin Bucket Count 5: 0
 ROB Critical Load Stall End Bucket Count 5: 0
 ROB Load Stall Begin Bucket Count 6: 2765
 ROB Load Stall End Bucket Count 6: 3750
 ROB Critical Load Stall Begin Bucket Count 6: 0
 ROB Critical Load Stall End Bucket Count 6: 0
PIST Tag Read Accesses: 2508544
PIST Read Accesses: 1254272
PIST Tag Write Accesses: 2508544
PIST Write Accesses: 1254272
Criticality detector called times: 3426385
Max global_stall_cycles_count: 1972176
Threshold Modified: 1 times, factor: -1
Sturdy critical IP cache stats: 
 Unused entries: 0
CIC Tag Read Accesses: 0
CIC Read Accesses: 0
CIC Tag Write Accesses: 0
CIC Write Accesses: 0
Wobbly critical IP cache stats: 
 Unused entries: 128
CIC Tag Read Accesses: 85545884
CIC Read Accesses: 0
CIC Tag Write Accesses: 0
CIC Write Accesses: 0
ITLB TOTAL     ACCESS:   10442376  HIT:    9684966  MISS:     757410  HIT %:    92.7468  MISS %:    7.25323   MPKI: 15.1482
ITLB LOAD TRANSLATION ACCESS:    8195276  HIT:    8148769  MISS:      46507  HIT %:    99.4325  MISS %:   0.567485   MPKI: 0.93014
ITLB TRANSLATION FROM L1D PREFETCHER ACCESS:    2247100  HIT:    1536197  MISS:     710903  HIT %:    68.3635  MISS %:    31.6365   MPKI: 14.2181
ITLB PREFETCH  REQUESTED:          0  ISSUED:          0  USEFUL:     596726  USELESS:     114182
ITLB USEFUL LOAD PREFETCHES:     596726 PREFETCH ISSUED TO LOWER LEVEL:          0  ACCURACY: inf
ITLB TIMELY PREFETCHES:     596726 LATE PREFETCHES: 1 DROPPED PREFETCHES: 6981
ITLB PREFETCHES SAME FILL-ORIGIN LEVEL: 0 DIFFERENT FILL-ORIGIN LEVEL: 0
ITLB AVERAGE MISS LATENCY: 28.3132 cycles
ITLB RQ	ACCESS:   16084966	FORWARD:          0	MERGED:    5596814	TO_CACHE:   10488152

DTLB TOTAL     ACCESS:   11639703  HIT:   11129099  MISS:     510604  HIT %:    95.6133  MISS %:    4.38674   MPKI: 10.2121
DTLB LOAD TRANSLATION ACCESS:   11639703  HIT:   11129099  MISS:     510604  HIT %:    95.6133  MISS %:    4.38674   MPKI: 10.2121
DTLB PREFETCH  REQUESTED:          0  ISSUED:          0  USEFUL:          0  USELESS:          0
DTLB USEFUL LOAD PREFETCHES:          0 PREFETCH ISSUED TO LOWER LEVEL:          0  ACCURACY: -nan
DTLB TIMELY PREFETCHES:          0 LATE PREFETCHES: 0 DROPPED PREFETCHES: 0
DTLB PREFETCHES SAME FILL-ORIGIN LEVEL: 0 DIFFERENT FILL-ORIGIN LEVEL: 0
DTLB AVERAGE MISS LATENCY: 9.04928 cycles
DTLB RQ	ACCESS:   15253114	FORWARD:          0	MERGED:    3591572	TO_CACHE:   11661542

STLB TOTAL     ACCESS:    1279172  HIT:    1278868  MISS:        304  HIT %:    99.9762  MISS %:  0.0237654   MPKI: 0.00608
STLB LOAD TRANSLATION ACCESS:     557110  HIT:     556806  MISS:        304  HIT %:    99.9454  MISS %:  0.0545673   MPKI: 0.00608
STLB TRANSLATION FROM L1D PREFETCHER ACCESS:     722062  HIT:     722062  MISS:          0  HIT %:        100  MISS %:          0   MPKI: 0
STLB PREFETCH  REQUESTED:          0  ISSUED:          0  USEFUL:          0  USELESS:          0
STLB USEFUL LOAD PREFETCHES:          0 PREFETCH ISSUED TO LOWER LEVEL:          0  ACCURACY: -nan
STLB TIMELY PREFETCHES:          0 LATE PREFETCHES: 0 DROPPED PREFETCHES: 6981
STLB PREFETCHES SAME FILL-ORIGIN LEVEL: 0 DIFFERENT FILL-ORIGIN LEVEL: 0
STLB AVERAGE MISS LATENCY: 26.875 cycles
STLB RQ	ACCESS:    1289221	FORWARD:          0	MERGED:       3068	TO_CACHE:    1286153

STLB Hit, L1D data hit: 0
STLB Hit, L2C data hit: 0
STLB Hit, LLC data hit: 0
STLB Hit, LLC data miss: 0
STLB STLB hints to L2: 0
L1D TOTAL     ACCESS:   14769588  HIT:   13628160  MISS:    1141428  HIT %:    92.2718  MISS %:    7.72823   MPKI: 22.8286
L1D LOAD      ACCESS:    8062093  HIT:    7225900  MISS:     836193  HIT %:    89.6281  MISS %:    10.3719   MPKI: 16.7239
L1D RFO       ACCESS:    6693845  HIT:    6394283  MISS:     299562  HIT %:    95.5248  MISS %:    4.47519   MPKI: 5.99124
L1D PREFETCH  ACCESS:      13650  HIT:       7977  MISS:       5673  HIT %:    58.4396  MISS %:    41.5604   MPKI: 0.11346
L1D PREFETCH  REQUESTED:      28467  ISSUED:      28467  USEFUL:       1015  USELESS:       4704
L1D USEFUL LOAD PREFETCHES:       1015 PREFETCH ISSUED TO LOWER LEVEL:       5856  ACCURACY: 17.3327
L1D TIMELY PREFETCHES:       1015 LATE PREFETCHES: 183 DROPPED PREFETCHES: 0
L1D PREFETCHES SAME FILL-ORIGIN LEVEL: 5856 DIFFERENT FILL-ORIGIN LEVEL: 0
L1D AVERAGE MISS LATENCY: 2694.11 cycles
L1D RQ	ACCESS:   11473813	FORWARD:          0	MERGED:    3220400	TO_CACHE:    8092108
L1D WQ	ACCESS:    7236333	FORWARD:     161320	MERGED:      75327	TO_CACHE:    7161006
L1D PQ	ACCESS:      14241	FORWARD:          0	MERGED:          0	TO_CACHE:      14226

L1D UNIQUE REGIONS ACCESSED: 0
L1D REGIONS CONFLICTS: 0
L1D Cross Page Prefetch Requests: 0
L1D Same Page Prefetch Requests: 342199
L1D ROI Sum of L1D PQ occupancy: 183660
L1D PREFETCHES PUSHED FROM L2C: 0
L1I TOTAL     ACCESS:   16014480  HIT:   11626316  MISS:    4388164  HIT %:    72.5988  MISS %:    27.4012   MPKI: 87.7633
L1I LOAD      ACCESS:    9751439  HIT:    9724280  MISS:      27159  HIT %:    99.7215  MISS %:   0.278513   MPKI: 0.54318
L1I PREFETCH  ACCESS:    6263041  HIT:    1902036  MISS:    4361005  HIT %:    30.3692  MISS %:    69.6308   MPKI: 87.2201
L1I PREFETCH  REQUESTED:    6470422  ISSUED:    6459210  USEFUL:    3254839  USELESS:    1106169
L1I USEFUL LOAD PREFETCHES:    3254839 PREFETCH ISSUED TO LOWER LEVEL:    4373476  ACCURACY: 74.4222
L1I TIMELY PREFETCHES:    3254839 LATE PREFETCHES: 12471 DROPPED PREFETCHES: 16582
L1I PREFETCHES SAME FILL-ORIGIN LEVEL: 4373476 DIFFERENT FILL-ORIGIN LEVEL: 0
L1I AVERAGE MISS LATENCY: 151577 cycles
L1I RQ	ACCESS:   13694940	FORWARD:          0	MERGED:    3939003	TO_CACHE:    9755937
L1I PQ	ACCESS:    6459210	FORWARD:          0	MERGED:     130181	TO_CACHE:    6329029

BTB TOTAL     ACCESS:    5868587  HIT:    3860324  MISS:    2008263  HIT %:    65.7794  MISS %:    34.2206   MPKI: 40.1653
BTB BRANCH_DIRECT_JUMP	ACCESS:     508368  HIT:     346588  MISS:     161780
BTB BRANCH_INDIRECT	ACCESS:     180051  HIT:     143281  MISS:      36770
BTB BRANCH_CONDITIONAL	ACCESS:    2594502  HIT:    2045018  MISS:     549484
BTB BRANCH_DIRECT_CALL	ACCESS:    1086731  HIT:     694535  MISS:     392196
BTB BRANCH_INDIRECT_CALL	ACCESS:     206109  HIT:     130934  MISS:      75175
BTB BRANCH_RETURN	ACCESS:    1292826  HIT:     499968  MISS:     792858
BTB BRANCH_OTHER ACCESS:          0  HIT:          0  MISS:          0

L2C TOTAL     ACCESS:    6125897  HIT:    5865107  MISS:     260790  HIT %:    95.7428  MISS %:    4.25717   MPKI: 5.2158
L2C LOAD      ACCESS:     850649  HIT:     775220  MISS:      75429  HIT %:    91.1328  MISS %:    8.86723   MPKI: 1.50858
L2C DATA LOAD MPKI: 1.50442
L2C INSTRUCTION LOAD MPKI: 0.00416
L2C RFO       ACCESS:     299562  HIT:     294581  MISS:       4981  HIT %:    98.3372  MISS %:    1.66276   MPKI: 0.09962
L2C PREFETCH  ACCESS:    4379332  HIT:    4205136  MISS:     174196  HIT %:    96.0223  MISS %:    3.97768   MPKI: 3.48392
L2C DATA PREFETCH MPKI: 0.03116
L2C INSTRUCTION PREFETCH MPKI: 3.45276
L2C WRITEBACK ACCESS:     589069  HIT:     582942  MISS:       6127  HIT %:    98.9599  MISS %:    1.04012   MPKI: 0.12254
L2C LOAD TRANSLATION ACCESS:        304  HIT:        247  MISS:         57  HIT %:      81.25  MISS %:      18.75   MPKI: 0.00114
L2C TRANSLATION FROM L1D PREFETCHER ACCESS:       6981  HIT:       6981  MISS:          0  HIT %:        100  MISS %:          0   MPKI: 0
L2C PREFETCH  REQUESTED:          0  ISSUED:          0  USEFUL:        384  USELESS:     175498
L2C USEFUL LOAD PREFETCHES:        384 PREFETCH ISSUED TO LOWER LEVEL:     174196  ACCURACY: 0.220441
L2C TIMELY PREFETCHES:        384 LATE PREFETCHES: 0 DROPPED PREFETCHES: 0
L2C PREFETCHES SAME FILL-ORIGIN LEVEL: 0 DIFFERENT FILL-ORIGIN LEVEL: 0
L2C AVERAGE MISS LATENCY: 30.744 cycles
L2C RQ	ACCESS:    1157545	FORWARD:          0	MERGED:          0	TO_CACHE:    1157496
L2C WQ	ACCESS:     589069	FORWARD:         49	MERGED:          0	TO_CACHE:     589069
L2C PQ	ACCESS:    4379332	FORWARD:          0	MERGED:          0	TO_CACHE:    4379332

L2C Instructions Evicting Data 47457
L2C Translations Evicting Data 55
L2C Data Evicting Data 39249
L2C Instructions Evicting Instructions 125385
L2C Translations Evicting Instructions 2
L2C Data Evicting Instructions 42460
L2C Instructions Evicting Translations 4
L2C Translations Evicting Translations 0
L2C Data Evicting Translations 51
L2C Dense regions hint from L2: 0
PSCL5 TOTAL     ACCESS:       7285  HIT:       7285  MISS:          0  HIT %:        100  MISS %:          0   MPKI: 0
PSCL5 LOAD TRANSLATION ACCESS:        304  HIT:        304  MISS:          0  HIT %:        100  MISS %:          0   MPKI: 0
PSCL5 TRANSLATION FROM L1D PREFETCHER ACCESS:       6981  HIT:       6981  MISS:          0  HIT %:        100  MISS %:          0   MPKI: 0
PSCL5 PREFETCH  REQUESTED:          0  ISSUED:          0  USEFUL:          0  USELESS:          0
PSCL5 USEFUL LOAD PREFETCHES:          0 PREFETCH ISSUED TO LOWER LEVEL:          0  ACCURACY: -nan
PSCL5 TIMELY PREFETCHES:          0 LATE PREFETCHES: 0 DROPPED PREFETCHES: 0
PSCL5 PREFETCHES SAME FILL-ORIGIN LEVEL: 0 DIFFERENT FILL-ORIGIN LEVEL: 0

PSCL4 TOTAL     ACCESS:       7285  HIT:       7285  MISS:          0  HIT %:        100  MISS %:          0   MPKI: 0
PSCL4 LOAD TRANSLATION ACCESS:        304  HIT:        304  MISS:          0  HIT %:        100  MISS %:          0   MPKI: 0
PSCL4 TRANSLATION FROM L1D PREFETCHER ACCESS:       6981  HIT:       6981  MISS:          0  HIT %:        100  MISS %:          0   MPKI: 0
PSCL4 PREFETCH  REQUESTED:          0  ISSUED:          0  USEFUL:          0  USELESS:          0
PSCL4 USEFUL LOAD PREFETCHES:          0 PREFETCH ISSUED TO LOWER LEVEL:          0  ACCURACY: -nan
PSCL4 TIMELY PREFETCHES:          0 LATE PREFETCHES: 0 DROPPED PREFETCHES: 0
PSCL4 PREFETCHES SAME FILL-ORIGIN LEVEL: 0 DIFFERENT FILL-ORIGIN LEVEL: 0

PSCL3 TOTAL     ACCESS:       7285  HIT:       7285  MISS:          0  HIT %:        100  MISS %:          0   MPKI: 0
PSCL3 LOAD TRANSLATION ACCESS:        304  HIT:        304  MISS:          0  HIT %:        100  MISS %:          0   MPKI: 0
PSCL3 TRANSLATION FROM L1D PREFETCHER ACCESS:       6981  HIT:       6981  MISS:          0  HIT %:        100  MISS %:          0   MPKI: 0
PSCL3 PREFETCH  REQUESTED:          0  ISSUED:          0  USEFUL:          0  USELESS:          0
PSCL3 USEFUL LOAD PREFETCHES:          0 PREFETCH ISSUED TO LOWER LEVEL:          0  ACCURACY: -nan
PSCL3 TIMELY PREFETCHES:          0 LATE PREFETCHES: 0 DROPPED PREFETCHES: 0
PSCL3 PREFETCHES SAME FILL-ORIGIN LEVEL: 0 DIFFERENT FILL-ORIGIN LEVEL: 0

PSCL2 TOTAL     ACCESS:       7285  HIT:       7285  MISS:          0  HIT %:        100  MISS %:          0   MPKI: 0
PSCL2 LOAD TRANSLATION ACCESS:        304  HIT:        304  MISS:          0  HIT %:        100  MISS %:          0   MPKI: 0
PSCL2 TRANSLATION FROM L1D PREFETCHER ACCESS:       6981  HIT:       6981  MISS:          0  HIT %:        100  MISS %:          0   MPKI: 0
PSCL2 PREFETCH  REQUESTED:          0  ISSUED:          0  USEFUL:          0  USELESS:          0
PSCL2 USEFUL LOAD PREFETCHES:          0 PREFETCH ISSUED TO LOWER LEVEL:          0  ACCURACY: -nan
PSCL2 TIMELY PREFETCHES:          0 LATE PREFETCHES: 0 DROPPED PREFETCHES: 0
PSCL2 PREFETCHES SAME FILL-ORIGIN LEVEL: 0 DIFFERENT FILL-ORIGIN LEVEL: 0

LLC TOTAL     ACCESS:     265465  HIT:     262590  MISS:       2875  HIT %:     98.917  MISS %:    1.08301   MPKI: 0.0575
LLC LOAD      ACCESS:      75429  HIT:      72791  MISS:       2638  HIT %:    96.5027  MISS %:    3.49733   MPKI: 0.05276
LLC RFO       ACCESS:       4981  HIT:       4979  MISS:          2  HIT %:    99.9598  MISS %:  0.0401526   MPKI: 4e-05
LLC PREFETCH  ACCESS:     174196  HIT:     173965  MISS:        231  HIT %:    99.8674  MISS %:   0.132609   MPKI: 0.00462
LLC WRITEBACK ACCESS:      10802  HIT:      10798  MISS:          4  HIT %:     99.963  MISS %:  0.0370302   MPKI: 8e-05
LLC LOAD TRANSLATION ACCESS:         57  HIT:         57  MISS:          0  HIT %:        100  MISS %:          0   MPKI: 0
LLC PREFETCH  REQUESTED:          0  ISSUED:          0  USEFUL:       5564  USELESS:         69
LLC USEFUL LOAD PREFETCHES:       5564 PREFETCH ISSUED TO LOWER LEVEL:        231  ACCURACY: 2408.66
LLC TIMELY PREFETCHES:       5564 LATE PREFETCHES: 0 DROPPED PREFETCHES: 0
LLC PREFETCHES SAME FILL-ORIGIN LEVEL: 0 DIFFERENT FILL-ORIGIN LEVEL: 0
LLC AVERAGE MISS LATENCY: 131.395 cycles
LLC RQ	ACCESS:      80467	FORWARD:          0	MERGED:          0	TO_CACHE:      80467
LLC WQ	ACCESS:      10802	FORWARD:          0	MERGED:          0	TO_CACHE:      10802
LLC PQ	ACCESS:     174196	FORWARD:          0	MERGED:          0	TO_CACHE:     174196

LLC Dense regions hint to LLC: 0

RAW hits: 1161616
Loads Generated: 12635430
Loads sent to L1D: 11473813
Stores Generated: 7236320
Stores sent to L1D: 7236333
Major fault: 0 Minor fault: 1263
Allocated PAGES: 1263
I-Shadow cache 408 bytes
Touched + WorthPF tables 6144 bytes 
MMA filter 174 bytes 
FNL filter 272 bytes 
TOTAL PREFETCHER STORAGE SIZE: 25174 bytes
CPU 0 L1I next line prefetcher final stats

stream: 
stream:times selected: 1038086
stream:pref_filled: 96188
stream:pref_useful: 16089
stream:pref_late: 3246
stream:misses: 6924
stream:misses_by_poll: 0

CS: 
CS:times selected: 88800
CS:pref_filled: 19159
CS:pref_useful: 10072
CS:pref_late: 549
CS:misses: 10402
CS:misses_by_poll: 0

CPLX: 
CPLX:times selected: 946275
CPLX:pref_filled: 36100
CPLX:pref_useful: 4206
CPLX:pref_late: 470
CPLX:misses: 92466
CPLX:misses_by_poll: 0

NL_L1: 
NL:times selected: 8978
NL:pref_filled: 984
NL:pref_useful: 157
NL:pref_late: 0
NL:misses: 241
NL:misses_by_poll: 0

total selections: 2082139
total_filled: 5673
total_useful: 1015
total_late: 4380
total_polluted: 0
total_misses_after_warmup: 866208
conflicts: 3199769
Degree Incremented Times: 0
Degree Decremented Times: 87999

L1 IP Table Write Accesses: 4621899
L1 IP Table Read Accesses: 1422130
L1 RST Write Accesses: 541741
L1 RST Read Accesses: 1083482
L1 CSPT Write Accesses: 541741
L1 CSPT Read Accesses: 1033492
L1 RR Filter Tag Write Accesses: 14241
L1 RR Filter Tag Read Accesses: 977594
L1 IP Table Tag Write Accesses: 8092108
L1 IP Table Tag Read Accesses: 8092108
L1 RST Tag Write Accesses: 0
L1 RST Tag Read Accesses: 4294893
L1 RR Filter Write Accesses: 0
L1 RR Filter Read Accesses: 36341
test: 195538

DRAM Statistics
 CHANNEL 0
 RQ ROW_BUFFER_HIT:       1115  ROW_BUFFER_MISS:       1756
 DBUS_CONGESTED:          0
 WQ ROW_BUFFER_HIT:          0  ROW_BUFFER_MISS:          9  FULL:          0

 AVG_CONGESTED_CYCLE: -
 All warmup complete: 2
Channel 0 Bank busy for read cycles: 0
Channel 0 Bank busy for write cycles: 0
Channel 0
Rank 0
0banks busy for read cycles: 77906403
0banks busy for write cycles: 7
1banks busy for read cycles: 270233
1banks busy for write cycles: 1954
2banks busy for read cycles: 16889
2banks busy for write cycles: 89
3banks busy for read cycles: 2510
3banks busy for write cycles: 1010
4banks busy for read cycles: 1736
4banks busy for write cycles: 0
5banks busy for read cycles: 133
5banks busy for write cycles: 0
6banks busy for read cycles: 0
6banks busy for write cycles: 0
7banks busy for read cycles: 0
7banks busy for write cycles: 0
8banks busy for read cycles: 0
8banks busy for write cycles: 0

CPU 0 Branch Prediction Accuracy: 99.8762% MPKI: 0.2296 Average ROB Occupancy at Mispredict: 88.7354
Branch types
NOT_BRANCH: 40725945 81.4519%
BRANCH_DIRECT_JUMP: 508368 1.01674%
BRANCH_INDIRECT: 180051 0.360102%
BRANCH_CONDITIONAL: 5999625 11.9992%
BRANCH_DIRECT_CALL: 1086731 2.17346%
BRANCH_INDIRECT_CALL: 206109 0.412218%
BRANCH_RETURN: 1292826 2.58565%
BRANCH_OTHER: 0 0%

DRAM PAGES: 1048576
Allocated PAGES: 1263
