
*** ChampSim Multicore Out-of-Order Simulator ***

Warmup Instructions: 50000000
Simulation Instructions: 50000000
Number of CPUs: 1
LLC sets: 2048
LLC ways: 16
Off-chip DRAM Size: 4096 MB Channels: 1 Width: 64-bit Data Rate: 6400 MT/s
CPU 0 runs ../IPC-traces//server_012.champsimtrace.xz
.xz
NUM_OF_IPS_IN_CRITICAL_IP_TRAINING: 64
NUM_OF_CRITICAL_IP_TRAINING_TABLE_WAYS: 2
NUM_OF_CRITICAL_IP_TRAINING_TABLE_SETS: 32
WOBBLY_CRITICAL_IP_CACHE_SETS: 32
WOBBLY_CRITICAL_IP_CACHE_WAYS: 4
BTB has LRU replacement policy
ITLB has LRU replacement policy
DTLB has LRU replacement policy
STLB has LRU replacement policy
CPU 0 L1I next line prefetcher
L1I has LRU replacement policy
IP Table Entries: 64
L1D has LRU replacement policy
Initialize SRRIP state for L2C
Initialize DRRIP state for LLC
Heartbeat CPU 0 instructions: 10000002 cycles: 2765041 heartbeat IPC: 3.61658 cumulative IPC: 3.61658 (Simulation time: 0 hr 4 min 49 sec) 
Heartbeat CPU 0 instructions: 20000002 cycles: 5524473 heartbeat IPC: 3.62393 cumulative IPC: 3.62026 (Simulation time: 0 hr 9 min 19 sec) 
Heartbeat CPU 0 instructions: 30000003 cycles: 8282173 heartbeat IPC: 3.62621 cumulative IPC: 3.62224 (Simulation time: 0 hr 13 min 15 sec) 
Heartbeat CPU 0 instructions: 40000000 cycles: 11041989 heartbeat IPC: 3.62343 cumulative IPC: 3.62254 (Simulation time: 0 hr 16 min 40 sec) 
Heartbeat CPU 0 instructions: 50000003 cycles: 13801798 heartbeat IPC: 3.62344 cumulative IPC: 3.62272 (Simulation time: 0 hr 20 min 7 sec) 

Warmup complete CPU 0 instructions: 50000003 cycles: 13801798 (Simulation time: 0 hr 20 min 7 sec) 

% increase in all ip prefetch 389.272
% increase in all ip prefetch 3.97405
Heartbeat CPU 0 instructions: 60000000 cycles: 27760024 heartbeat IPC: 0.716423 cumulative IPC: 0.716423 (Simulation time: 0 hr 23 min 45 sec) 
Heartbeat CPU 0 instructions: 70000000 cycles: 41706638 heartbeat IPC: 0.71702 cumulative IPC: 0.716721 (Simulation time: 0 hr 27 min 2 sec) 
Heartbeat CPU 0 instructions: 80000003 cycles: 55826275 heartbeat IPC: 0.708234 cumulative IPC: 0.71387 (Simulation time: 0 hr 30 min 19 sec) 
Heartbeat CPU 0 instructions: 90000000 cycles: 70106681 heartbeat IPC: 0.70026 cumulative IPC: 0.710418 (Simulation time: 0 hr 33 min 38 sec) 
Heartbeat CPU 0 instructions: 100000002 cycles: 84226591 heartbeat IPC: 0.70822 cumulative IPC: 0.709977 (Simulation time: 0 hr 37 min 4 sec) 
Finished CPU 0 instructions: 50000001 cycles: 70424795 cumulative IPC: 0.709977 (Simulation time: 0 hr 37 min 4 sec) 

ChampSim completed all CPUs

Region of Interest Statistics

CPU 0 cumulative IPC: 0.709977 instructions: 50000001 cycles: 70424795

CPU 0 Average Load ROB stall cycles: 1.88126e+07
CPU 0 Fraction of times ROB stalled by Loads: 38.5114
CPU 0 Percentage of Load stall cycles in Total stall cycles: 2.20849e+08
Issued all: 27344404
Issued LT all: 21201344
rob_not_full_when_issued_lt_all: 20269229
Issued LT one: 16841032
rob_not_full_when_issued_lt_one: 16051685
 Total stall cycles: 57216562
 Total load stall cycles: 126362487995729
CPU 0 NUM of IPS identified critical: 0
CPU 0 Num of Load IPs stalling ROB: 24118
Threshold modification factor: -1
Max PIST entries: 64
Min PIST entries: 0
Avg PIST entries: 32
Trouble in retire width: 0.891213
MaC = Marked as critical.
lt_50_percent_before_Mac: 0
gt_90_percent_before_Mac: 0
gt_75_percent_before_Mac: 0
gt_50_percent_before_Mac: 0
stall_proportion_bin_same_before_after: 0
stall_proportion_bin_lower_before_after: 0
stall_proportion_bin_upper_before_after: 0
average_stall_proportion_before: -nan
average_stall_proportion_after: -nan
Critical IP stalls, total frequency: 0
Non-critical IP stalls, total frequency: 2586769
Total Freq all stalling IPs: 2586769
stat_90_percent_critical_ip_stalls_freq: 2328203
stat_90_percent_non_critical_ip_stalls_freq: 258566
Critical_IP_ROB_Stalls_Bucket_0: 0
Non-critical_IP_ROB_Stalls_Bucket_0: 1322711
Critical_IP_ROB_Stalls_Bucket_1: 0
Non-critical_IP_ROB_Stalls_Bucket_1: 756801
Critical_IP_ROB_Stalls_Bucket_2: 0
Non-critical_IP_ROB_Stalls_Bucket_2: 278184
Critical_IP_ROB_Stalls_Bucket_3: 0
Non-critical_IP_ROB_Stalls_Bucket_3: 94068
Critical_IP_ROB_Stalls_Bucket_4: 0
Non-critical_IP_ROB_Stalls_Bucket_4: 51821
Critical_IP_ROB_Stalls_Bucket_5: 0
Non-critical_IP_ROB_Stalls_Bucket_5: 30257
Critical_IP_ROB_Stalls_Bucket_6: 0
Non-critical_IP_ROB_Stalls_Bucket_6: 52927
0 => IPs accounting for >50 percent of stalls, 1 => 55, 2 => 60, 3 => 65 and so on till 90.
percent50: 50.0043 num IPs:  290
percent55: 55.0187 num IPs: 428
percent60: 60.0264 num IPs: 598
percent65: 65.0189 num IPs: 815
percent70: 70.0034 num IPs: 1137
percent75: 75.0021 num IPs: 1646
percent80: 80.001 num IPs: 2465
percent85: 85.0029 num IPs: 3693
percent90: 90.0025 num IPs: 5384
Critical_ROB_Stalls_Percent_0_Bucket_0: 619055
Non-critical_ROB_Stalls_Percent_0_Bucket_0: 703656
Critical_ROB_Stalls_Percent_0_Bucket_1: 426728
Non-critical_ROB_Stalls_Percent_0_Bucket_1: 330073
Critical_ROB_Stalls_Percent_0_Bucket_2: 156733
Non-critical_ROB_Stalls_Percent_0_Bucket_2: 121451
Critical_ROB_Stalls_Percent_0_Bucket_3: 36692
Non-critical_ROB_Stalls_Percent_0_Bucket_3: 57376
Critical_ROB_Stalls_Percent_0_Bucket_4: 18553
Non-critical_ROB_Stalls_Percent_0_Bucket_4: 33268
Critical_ROB_Stalls_Percent_0_Bucket_5: 11040
Non-critical_ROB_Stalls_Percent_0_Bucket_5: 19217
Critical_ROB_Stalls_Percent_0_Bucket_6: 24694
Non-critical_ROB_Stalls_Percent_0_Bucket_6: 28233
Critical_ROB_Stalls_Percent_1_Bucket_0: 676124
Non-critical_ROB_Stalls_Percent_1_Bucket_0: 646587
Critical_ROB_Stalls_Percent_1_Bucket_1: 466692
Non-critical_ROB_Stalls_Percent_1_Bucket_1: 290109
Critical_ROB_Stalls_Percent_1_Bucket_2: 172156
Non-critical_ROB_Stalls_Percent_1_Bucket_2: 106028
Critical_ROB_Stalls_Percent_1_Bucket_3: 42957
Non-critical_ROB_Stalls_Percent_1_Bucket_3: 51111
Critical_ROB_Stalls_Percent_1_Bucket_4: 22617
Non-critical_ROB_Stalls_Percent_1_Bucket_4: 29204
Critical_ROB_Stalls_Percent_1_Bucket_5: 14083
Non-critical_ROB_Stalls_Percent_1_Bucket_5: 16174
Critical_ROB_Stalls_Percent_1_Bucket_6: 28578
Non-critical_ROB_Stalls_Percent_1_Bucket_6: 24349
Critical_ROB_Stalls_Percent_2_Bucket_0: 727432
Non-critical_ROB_Stalls_Percent_2_Bucket_0: 595279
Critical_ROB_Stalls_Percent_2_Bucket_1: 515894
Non-critical_ROB_Stalls_Percent_2_Bucket_1: 240907
Critical_ROB_Stalls_Percent_2_Bucket_2: 185183
Non-critical_ROB_Stalls_Percent_2_Bucket_2: 93001
Critical_ROB_Stalls_Percent_2_Bucket_3: 48367
Non-critical_ROB_Stalls_Percent_2_Bucket_3: 45701
Critical_ROB_Stalls_Percent_2_Bucket_4: 26694
Non-critical_ROB_Stalls_Percent_2_Bucket_4: 25127
Critical_ROB_Stalls_Percent_2_Bucket_5: 17159
Non-critical_ROB_Stalls_Percent_2_Bucket_5: 13098
Critical_ROB_Stalls_Percent_2_Bucket_6: 32016
Non-critical_ROB_Stalls_Percent_2_Bucket_6: 20911
Critical_ROB_Stalls_Percent_3_Bucket_0: 797407
Non-critical_ROB_Stalls_Percent_3_Bucket_0: 525304
Critical_ROB_Stalls_Percent_3_Bucket_1: 556122
Non-critical_ROB_Stalls_Percent_3_Bucket_1: 200679
Critical_ROB_Stalls_Percent_3_Bucket_2: 194713
Non-critical_ROB_Stalls_Percent_3_Bucket_2: 83471
Critical_ROB_Stalls_Percent_3_Bucket_3: 52279
Non-critical_ROB_Stalls_Percent_3_Bucket_3: 41789
Critical_ROB_Stalls_Percent_3_Bucket_4: 29011
Non-critical_ROB_Stalls_Percent_3_Bucket_4: 22810
Critical_ROB_Stalls_Percent_3_Bucket_5: 18631
Non-critical_ROB_Stalls_Percent_3_Bucket_5: 11626
Critical_ROB_Stalls_Percent_3_Bucket_6: 33727
Non-critical_ROB_Stalls_Percent_3_Bucket_6: 19200
Critical_ROB_Stalls_Percent_4_Bucket_0: 871303
Non-critical_ROB_Stalls_Percent_4_Bucket_0: 451408
Critical_ROB_Stalls_Percent_4_Bucket_1: 587958
Non-critical_ROB_Stalls_Percent_4_Bucket_1: 168843
Critical_ROB_Stalls_Percent_4_Bucket_2: 205974
Non-critical_ROB_Stalls_Percent_4_Bucket_2: 72210
Critical_ROB_Stalls_Percent_4_Bucket_3: 57294
Non-critical_ROB_Stalls_Percent_4_Bucket_3: 36774
Critical_ROB_Stalls_Percent_4_Bucket_4: 32100
Non-critical_ROB_Stalls_Percent_4_Bucket_4: 19721
Critical_ROB_Stalls_Percent_4_Bucket_5: 20581
Non-critical_ROB_Stalls_Percent_4_Bucket_5: 9676
Critical_ROB_Stalls_Percent_4_Bucket_6: 35619
Non-critical_ROB_Stalls_Percent_4_Bucket_6: 17308
Critical_ROB_Stalls_Percent_5_Bucket_0: 936923
Non-critical_ROB_Stalls_Percent_5_Bucket_0: 385788
Critical_ROB_Stalls_Percent_5_Bucket_1: 622427
Non-critical_ROB_Stalls_Percent_5_Bucket_1: 134374
Critical_ROB_Stalls_Percent_5_Bucket_2: 220770
Non-critical_ROB_Stalls_Percent_5_Bucket_2: 57414
Critical_ROB_Stalls_Percent_5_Bucket_3: 64417
Non-critical_ROB_Stalls_Percent_5_Bucket_3: 29651
Critical_ROB_Stalls_Percent_5_Bucket_4: 36096
Non-critical_ROB_Stalls_Percent_5_Bucket_4: 15725
Critical_ROB_Stalls_Percent_5_Bucket_5: 22254
Non-critical_ROB_Stalls_Percent_5_Bucket_5: 8003
Critical_ROB_Stalls_Percent_5_Bucket_6: 37249
Non-critical_ROB_Stalls_Percent_5_Bucket_6: 15678
Critical_ROB_Stalls_Percent_6_Bucket_0: 1009265
Non-critical_ROB_Stalls_Percent_6_Bucket_0: 313446
Critical_ROB_Stalls_Percent_6_Bucket_1: 654611
Non-critical_ROB_Stalls_Percent_6_Bucket_1: 102190
Critical_ROB_Stalls_Percent_6_Bucket_2: 231798
Non-critical_ROB_Stalls_Percent_6_Bucket_2: 46386
Critical_ROB_Stalls_Percent_6_Bucket_3: 69839
Non-critical_ROB_Stalls_Percent_6_Bucket_3: 24229
Critical_ROB_Stalls_Percent_6_Bucket_4: 39720
Non-critical_ROB_Stalls_Percent_6_Bucket_4: 12101
Critical_ROB_Stalls_Percent_6_Bucket_5: 24048
Non-critical_ROB_Stalls_Percent_6_Bucket_5: 6209
Critical_ROB_Stalls_Percent_6_Bucket_6: 40161
Non-critical_ROB_Stalls_Percent_6_Bucket_6: 12766
Critical_ROB_Stalls_Percent_7_Bucket_0: 1083954
Non-critical_ROB_Stalls_Percent_7_Bucket_0: 238757
Critical_ROB_Stalls_Percent_7_Bucket_1: 684498
Non-critical_ROB_Stalls_Percent_7_Bucket_1: 72303
Critical_ROB_Stalls_Percent_7_Bucket_2: 243088
Non-critical_ROB_Stalls_Percent_7_Bucket_2: 35096
Critical_ROB_Stalls_Percent_7_Bucket_3: 75191
Non-critical_ROB_Stalls_Percent_7_Bucket_3: 18877
Critical_ROB_Stalls_Percent_7_Bucket_4: 43169
Non-critical_ROB_Stalls_Percent_7_Bucket_4: 8652
Critical_ROB_Stalls_Percent_7_Bucket_5: 25552
Non-critical_ROB_Stalls_Percent_7_Bucket_5: 4705
Critical_ROB_Stalls_Percent_7_Bucket_6: 43370
Non-critical_ROB_Stalls_Percent_7_Bucket_6: 9557
Critical_ROB_Stalls_Percent_8_Bucket_0: 1165932
Non-critical_ROB_Stalls_Percent_8_Bucket_0: 156779
Critical_ROB_Stalls_Percent_8_Bucket_1: 707857
Non-critical_ROB_Stalls_Percent_8_Bucket_1: 48944
Critical_ROB_Stalls_Percent_8_Bucket_2: 253481
Non-critical_ROB_Stalls_Percent_8_Bucket_2: 24703
Critical_ROB_Stalls_Percent_8_Bucket_3: 81053
Non-critical_ROB_Stalls_Percent_8_Bucket_3: 13015
Critical_ROB_Stalls_Percent_8_Bucket_4: 45208
Non-critical_ROB_Stalls_Percent_8_Bucket_4: 6613
Critical_ROB_Stalls_Percent_8_Bucket_5: 26654
Non-critical_ROB_Stalls_Percent_8_Bucket_5: 3603
Critical_ROB_Stalls_Percent_8_Bucket_6: 48018
Non-critical_ROB_Stalls_Percent_8_Bucket_6: 4909
Average ROB occupancy Load Stall Begin: 57.025
Average ROB occupancy Load Stall End: 68.9146
Min ROB occupancy Load Stall Begin: 1
Max ROB occupancy Load Stall Begin: 352
Min ROB occupancy Load Stall End: 1
Max ROB occupancy Load Stall End: 352
Average ROB occupancy Critical Load Stall Begin: -nan
Average ROB occupancy Critical Load Stall End: -nan
Min ROB occupancy Critical Load Stall Begin: 400
Max ROB occupancy Critical Load Stall Begin: 0
Min ROB occupancy Critical Load Stall End: 400
Max ROB occupancy Critical Load Stall End: 0
 ROB Load Stall Begin Bucket Count 0: 1616642
 ROB Load Stall End Bucket Count 0: 1322711
 ROB Critical Load Stall Begin Bucket Count 0: 0
 ROB Critical Load Stall End Bucket Count 0: 0
 ROB Load Stall Begin Bucket Count 1: 575425
 ROB Load Stall End Bucket Count 1: 756801
 ROB Critical Load Stall Begin Bucket Count 1: 0
 ROB Critical Load Stall End Bucket Count 1: 0
 ROB Load Stall Begin Bucket Count 2: 213389
 ROB Load Stall End Bucket Count 2: 278184
 ROB Critical Load Stall Begin Bucket Count 2: 0
 ROB Critical Load Stall End Bucket Count 2: 0
 ROB Load Stall Begin Bucket Count 3: 69582
 ROB Load Stall End Bucket Count 3: 94068
 ROB Critical Load Stall Begin Bucket Count 3: 0
 ROB Critical Load Stall End Bucket Count 3: 0
 ROB Load Stall Begin Bucket Count 4: 41660
 ROB Load Stall End Bucket Count 4: 51821
 ROB Critical Load Stall Begin Bucket Count 4: 0
 ROB Critical Load Stall End Bucket Count 4: 0
 ROB Load Stall Begin Bucket Count 5: 25574
 ROB Load Stall End Bucket Count 5: 30257
 ROB Critical Load Stall Begin Bucket Count 5: 0
 ROB Critical Load Stall End Bucket Count 5: 0
 ROB Load Stall Begin Bucket Count 6: 44498
 ROB Load Stall End Bucket Count 6: 52927
 ROB Critical Load Stall Begin Bucket Count 6: 0
 ROB Critical Load Stall End Bucket Count 6: 0
PIST Tag Read Accesses: 3016800
PIST Read Accesses: 1508400
PIST Tag Write Accesses: 3016800
PIST Write Accesses: 1508400
Criticality detector called times: 2542410
Max global_stall_cycles_count: 3308160
Threshold Modified: 1 times, factor: -1
Sturdy critical IP cache stats: 
 Unused entries: 0
CIC Tag Read Accesses: 0
CIC Read Accesses: 0
CIC Tag Write Accesses: 0
CIC Write Accesses: 0
Wobbly critical IP cache stats: 
 Unused entries: 123
CIC Tag Read Accesses: 70433825
CIC Read Accesses: 0
CIC Tag Write Accesses: 5
CIC Write Accesses: 0
ITLB TOTAL     ACCESS:    8952255  HIT:    8699772  MISS:     252483  HIT %:    97.1797  MISS %:    2.82033   MPKI: 5.04966
ITLB LOAD TRANSLATION ACCESS:    7669875  HIT:    7598483  MISS:      71392  HIT %:    99.0692  MISS %:    0.93081   MPKI: 1.42784
ITLB TRANSLATION FROM L1D PREFETCHER ACCESS:    1282380  HIT:    1101289  MISS:     181091  HIT %:    85.8785  MISS %:    14.1215   MPKI: 3.62182
ITLB PREFETCH  REQUESTED:          0  ISSUED:          0  USEFUL:     145250  USELESS:      35841
ITLB USEFUL LOAD PREFETCHES:     145250 PREFETCH ISSUED TO LOWER LEVEL:          0  ACCURACY: inf
ITLB TIMELY PREFETCHES:     145250 LATE PREFETCHES: 1109 DROPPED PREFETCHES: 13606
ITLB PREFETCHES SAME FILL-ORIGIN LEVEL: 0 DIFFERENT FILL-ORIGIN LEVEL: 0
ITLB AVERAGE MISS LATENCY: 213955 cycles
ITLB RQ	ACCESS:   12604598	FORWARD:          0	MERGED:    3605446	TO_CACHE:    8999152

DTLB TOTAL     ACCESS:    9355866  HIT:    8716920  MISS:     638946  HIT %:    93.1706  MISS %:    6.82936   MPKI: 12.7789
DTLB LOAD TRANSLATION ACCESS:    9355866  HIT:    8716920  MISS:     638946  HIT %:    93.1706  MISS %:    6.82936   MPKI: 12.7789
DTLB PREFETCH  REQUESTED:          0  ISSUED:          0  USEFUL:          0  USELESS:          0
DTLB USEFUL LOAD PREFETCHES:          0 PREFETCH ISSUED TO LOWER LEVEL:          0  ACCURACY: -nan
DTLB TIMELY PREFETCHES:          0 LATE PREFETCHES: 0 DROPPED PREFETCHES: 0
DTLB PREFETCHES SAME FILL-ORIGIN LEVEL: 0 DIFFERENT FILL-ORIGIN LEVEL: 0
DTLB AVERAGE MISS LATENCY: 15.1727 cycles
DTLB RQ	ACCESS:   11883554	FORWARD:          0	MERGED:    2487652	TO_CACHE:    9395902

STLB TOTAL     ACCESS:     897568  HIT:     777136  MISS:     120432  HIT %:    86.5824  MISS %:    13.4176   MPKI: 2.40864
STLB LOAD TRANSLATION ACCESS:     709229  HIT:     616904  MISS:      92325  HIT %:    86.9823  MISS %:    13.0177   MPKI: 1.8465
STLB TRANSLATION FROM L1D PREFETCHER ACCESS:     188339  HIT:     160232  MISS:      28107  HIT %:    85.0764  MISS %:    14.9236   MPKI: 0.56214
STLB PREFETCH  REQUESTED:          0  ISSUED:          0  USEFUL:      16477  USELESS:      11628
STLB USEFUL LOAD PREFETCHES:      16477 PREFETCH ISSUED TO LOWER LEVEL:          0  ACCURACY: inf
STLB TIMELY PREFETCHES:      16477 LATE PREFETCHES: 0 DROPPED PREFETCHES: 13606
STLB PREFETCHES SAME FILL-ORIGIN LEVEL: 0 DIFFERENT FILL-ORIGIN LEVEL: 0
STLB AVERAGE MISS LATENCY: 46.0466 cycles
STLB RQ	ACCESS:     912488	FORWARD:          0	MERGED:       1314	TO_CACHE:     911174

STLB Hit, L1D data hit: 0
STLB Hit, L2C data hit: 0
STLB Hit, LLC data hit: 0
STLB Hit, LLC data miss: 0
STLB STLB hints to L2: 0
L1D TOTAL     ACCESS:   11726499  HIT:   11088548  MISS:     637951  HIT %:    94.5597  MISS %:    5.44025   MPKI: 12.759
L1D LOAD      ACCESS:    6742192  HIT:    6199532  MISS:     542660  HIT %:    91.9513  MISS %:    8.04872   MPKI: 10.8532
L1D RFO       ACCESS:    4977333  HIT:    4886798  MISS:      90535  HIT %:    98.1811  MISS %:    1.81895   MPKI: 1.8107
L1D PREFETCH  ACCESS:       6974  HIT:       2218  MISS:       4756  HIT %:    31.8038  MISS %:    68.1962   MPKI: 0.09512
L1D PREFETCH  REQUESTED:      14910  ISSUED:      14908  USEFUL:       3050  USELESS:       1757
L1D USEFUL LOAD PREFETCHES:       3050 PREFETCH ISSUED TO LOWER LEVEL:       4940  ACCURACY: 61.7409
L1D TIMELY PREFETCHES:       3050 LATE PREFETCHES: 167 DROPPED PREFETCHES: 0
L1D PREFETCHES SAME FILL-ORIGIN LEVEL: 4940 DIFFERENT FILL-ORIGIN LEVEL: 0
L1D AVERAGE MISS LATENCY: 6031.43 cycles
L1D RQ	ACCESS:   10398240	FORWARD:          0	MERGED:    3530011	TO_CACHE:    6780957
L1D WQ	ACCESS:    5225435	FORWARD:      87274	MERGED:     122838	TO_CACHE:    5102597
L1D PQ	ACCESS:       7455	FORWARD:          0	MERGED:          0	TO_CACHE:       7453

L1D UNIQUE REGIONS ACCESSED: 0
L1D REGIONS CONFLICTS: 0
L1D Cross Page Prefetch Requests: 0
L1D Same Page Prefetch Requests: 119095
L1D ROI Sum of L1D PQ occupancy: 97454
L1D PREFETCHES PUSHED FROM L2C: 0
L1I TOTAL     ACCESS:   12425153  HIT:   10331687  MISS:    2093466  HIT %:    83.1514  MISS %:    16.8486   MPKI: 41.8693
L1I LOAD      ACCESS:    9418112  HIT:    9161301  MISS:     256811  HIT %:    97.2732  MISS %:    2.72678   MPKI: 5.13622
L1I PREFETCH  ACCESS:    3007041  HIT:    1170386  MISS:    1836655  HIT %:    38.9215  MISS %:    61.0785   MPKI: 36.7331
L1I PREFETCH  REQUESTED:    3277735  ISSUED:    3267415  USEFUL:    1204348  USELESS:     632329
L1I USEFUL LOAD PREFETCHES:    1204348 PREFETCH ISSUED TO LOWER LEVEL:    1870724  ACCURACY: 64.3787
L1I TIMELY PREFETCHES:    1204348 LATE PREFETCHES: 34064 DROPPED PREFETCHES: 42694
L1I PREFETCHES SAME FILL-ORIGIN LEVEL: 1870724 DIFFERENT FILL-ORIGIN LEVEL: 0
L1I AVERAGE MISS LATENCY: 802093 cycles
L1I RQ	ACCESS:   13687361	FORWARD:          0	MERGED:    4242198	TO_CACHE:    9445163
L1I PQ	ACCESS:    3267415	FORWARD:          0	MERGED:     107980	TO_CACHE:    3159435

BTB TOTAL     ACCESS:    4512074  HIT:    3722869  MISS:     789205  HIT %:     82.509  MISS %:     17.491   MPKI: 15.7841
BTB BRANCH_DIRECT_JUMP	ACCESS:     469808  HIT:     407044  MISS:      62764
BTB BRANCH_INDIRECT	ACCESS:     153732  HIT:     119846  MISS:      33886
BTB BRANCH_CONDITIONAL	ACCESS:    2157421  HIT:    1900789  MISS:     256632
BTB BRANCH_DIRECT_CALL	ACCESS:     679877  HIT:     561787  MISS:     118090
BTB BRANCH_INDIRECT_CALL	ACCESS:     168745  HIT:     156218  MISS:      12527
BTB BRANCH_RETURN	ACCESS:     882491  HIT:     577185  MISS:     305306
BTB BRANCH_OTHER ACCESS:          0  HIT:          0  MISS:          0

L2C TOTAL     ACCESS:    3184273  HIT:    1993249  MISS:    1191024  HIT %:    62.5967  MISS %:    37.4033   MPKI: 23.8205
L2C LOAD      ACCESS:     765217  HIT:     362773  MISS:     402444  HIT %:    47.4079  MISS %:    52.5921   MPKI: 8.04888
L2C DATA LOAD MPKI: 6.2372
L2C INSTRUCTION LOAD MPKI: 1.81168
L2C RFO       ACCESS:      90534  HIT:      41262  MISS:      49272  HIT %:    45.5762  MISS %:    54.4238   MPKI: 0.98544
L2C PREFETCH  ACCESS:    1897009  HIT:    1243015  MISS:     653994  HIT %:     65.525  MISS %:     34.475   MPKI: 13.0799
L2C DATA PREFETCH MPKI: 0.25458
L2C INSTRUCTION PREFETCH MPKI: 12.8253
L2C WRITEBACK ACCESS:     254723  HIT:     232913  MISS:      21810  HIT %:    91.4378  MISS %:    8.56224   MPKI: 0.4362
L2C LOAD TRANSLATION ACCESS:     121978  HIT:      68674  MISS:      53304  HIT %:    56.3003  MISS %:    43.6997   MPKI: 1.06608
L2C TRANSLATION FROM L1D PREFETCHER ACCESS:      54812  HIT:      44612  MISS:      10200  HIT %:    81.3909  MISS %:    18.6091   MPKI: 0.204
L2C PREFETCH  REQUESTED:      23439  ISSUED:      23411  USEFUL:      20527  USELESS:     644450
L2C USEFUL LOAD PREFETCHES:      20527 PREFETCH ISSUED TO LOWER LEVEL:     654440  ACCURACY: 3.13657
L2C TIMELY PREFETCHES:      20527 LATE PREFETCHES: 445 DROPPED PREFETCHES: 0
L2C PREFETCHES SAME FILL-ORIGIN LEVEL: 10515 DIFFERENT FILL-ORIGIN LEVEL: 0
L2C AVERAGE MISS LATENCY: 38.5786 cycles
L2C RQ	ACCESS:    1032564	FORWARD:          0	MERGED:          0	TO_CACHE:    1032541
L2C WQ	ACCESS:     254723	FORWARD:         23	MERGED:          0	TO_CACHE:     254723
L2C PQ	ACCESS:    1899059	FORWARD:          0	MERGED:        785	TO_CACHE:    1898274

L2C Instructions Evicting Data 242567
L2C Translations Evicting Data 20684
L2C Data Evicting Data 125725
L2C Instructions Evicting Instructions 449597
L2C Translations Evicting Instructions 39830
L2C Data Evicting Instructions 228425
L2C Instructions Evicting Translations 39685
L2C Translations Evicting Translations 2990
L2C Data Evicting Translations 19711
L2C Dense regions hint from L2: 0
PSCL5 TOTAL     ACCESS:     134038  HIT:     134038  MISS:          0  HIT %:        100  MISS %:          0   MPKI: 0
PSCL5 LOAD TRANSLATION ACCESS:      92325  HIT:      92325  MISS:          0  HIT %:        100  MISS %:          0   MPKI: 0
PSCL5 TRANSLATION FROM L1D PREFETCHER ACCESS:      41713  HIT:      41713  MISS:          0  HIT %:        100  MISS %:          0   MPKI: 0
PSCL5 PREFETCH  REQUESTED:          0  ISSUED:          0  USEFUL:          0  USELESS:          0
PSCL5 USEFUL LOAD PREFETCHES:          0 PREFETCH ISSUED TO LOWER LEVEL:          0  ACCURACY: -nan
PSCL5 TIMELY PREFETCHES:          0 LATE PREFETCHES: 0 DROPPED PREFETCHES: 0
PSCL5 PREFETCHES SAME FILL-ORIGIN LEVEL: 0 DIFFERENT FILL-ORIGIN LEVEL: 0

PSCL4 TOTAL     ACCESS:     125256  HIT:     124901  MISS:        355  HIT %:    99.7166  MISS %:    0.28342   MPKI: 0.0071
PSCL4 LOAD TRANSLATION ACCESS:      88000  HIT:      87645  MISS:        355  HIT %:    99.5966  MISS %:   0.403409   MPKI: 0.0071
PSCL4 TRANSLATION FROM L1D PREFETCHER ACCESS:      37256  HIT:      37256  MISS:          0  HIT %:        100  MISS %:          0   MPKI: 0
PSCL4 PREFETCH  REQUESTED:          0  ISSUED:          0  USEFUL:          0  USELESS:          0
PSCL4 USEFUL LOAD PREFETCHES:          0 PREFETCH ISSUED TO LOWER LEVEL:          0  ACCURACY: -nan
PSCL4 TIMELY PREFETCHES:          0 LATE PREFETCHES: 0 DROPPED PREFETCHES: 0
PSCL4 PREFETCHES SAME FILL-ORIGIN LEVEL: 0 DIFFERENT FILL-ORIGIN LEVEL: 0

PSCL3 TOTAL     ACCESS:     131758  HIT:     130766  MISS:        992  HIT %:    99.2471  MISS %:   0.752895   MPKI: 0.01984
PSCL3 LOAD TRANSLATION ACCESS:      92084  HIT:      91092  MISS:        992  HIT %:    98.9227  MISS %:    1.07728   MPKI: 0.01984
PSCL3 TRANSLATION FROM L1D PREFETCHER ACCESS:      39674  HIT:      39674  MISS:          0  HIT %:        100  MISS %:          0   MPKI: 0
PSCL3 PREFETCH  REQUESTED:          0  ISSUED:          0  USEFUL:          0  USELESS:          0
PSCL3 USEFUL LOAD PREFETCHES:          0 PREFETCH ISSUED TO LOWER LEVEL:          0  ACCURACY: -nan
PSCL3 TIMELY PREFETCHES:          0 LATE PREFETCHES: 0 DROPPED PREFETCHES: 0
PSCL3 PREFETCHES SAME FILL-ORIGIN LEVEL: 0 DIFFERENT FILL-ORIGIN LEVEL: 0

PSCL2 TOTAL     ACCESS:     125585  HIT:      93409  MISS:      32176  HIT %:    74.3791  MISS %:    25.6209   MPKI: 0.64352
PSCL2 LOAD TRANSLATION ACCESS:      95940  HIT:      63764  MISS:      32176  HIT %:    66.4624  MISS %:    33.5376   MPKI: 0.64352
PSCL2 TRANSLATION FROM L1D PREFETCHER ACCESS:      29645  HIT:      29645  MISS:          0  HIT %:        100  MISS %:          0   MPKI: 0
PSCL2 PREFETCH  REQUESTED:          0  ISSUED:          0  USEFUL:          0  USELESS:          0
PSCL2 USEFUL LOAD PREFETCHES:          0 PREFETCH ISSUED TO LOWER LEVEL:          0  ACCURACY: -nan
PSCL2 TIMELY PREFETCHES:          0 LATE PREFETCHES: 0 DROPPED PREFETCHES: 0
PSCL2 PREFETCHES SAME FILL-ORIGIN LEVEL: 0 DIFFERENT FILL-ORIGIN LEVEL: 0

LLC TOTAL     ACCESS:    1301432  HIT:    1231478  MISS:      69954  HIT %:    94.6248  MISS %:    5.37516   MPKI: 1.39908
LLC LOAD      ACCESS:     402000  HIT:     351193  MISS:      50807  HIT %:    87.3614  MISS %:    12.6386   MPKI: 1.01614
LLC RFO       ACCESS:      49267  HIT:      37545  MISS:      11722  HIT %:    76.2072  MISS %:    23.7928   MPKI: 0.23444
LLC PREFETCH  ACCESS:     654440  HIT:     648745  MISS:       5695  HIT %:    99.1298  MISS %:    0.87021   MPKI: 0.1139
LLC WRITEBACK ACCESS:     132221  HIT:     131678  MISS:        543  HIT %:    99.5893  MISS %:   0.410676   MPKI: 0.01086
LLC LOAD TRANSLATION ACCESS:      53304  HIT:      52138  MISS:       1166  HIT %:    97.8125  MISS %:    2.18745   MPKI: 0.02332
LLC TRANSLATION FROM L1D PREFETCHER ACCESS:      10200  HIT:      10179  MISS:         21  HIT %:    99.7941  MISS %:   0.205882   MPKI: 0.00042
LLC PREFETCH  REQUESTED:          0  ISSUED:          0  USEFUL:       1132  USELESS:      13585
LLC USEFUL LOAD PREFETCHES:       1132 PREFETCH ISSUED TO LOWER LEVEL:       5695  ACCURACY: 19.8771
LLC TIMELY PREFETCHES:       1132 LATE PREFETCHES: 0 DROPPED PREFETCHES: 0
LLC PREFETCHES SAME FILL-ORIGIN LEVEL: 0 DIFFERENT FILL-ORIGIN LEVEL: 0
LLC AVERAGE MISS LATENCY: 154.773 cycles
LLC RQ	ACCESS:     514775	FORWARD:          0	MERGED:          0	TO_CACHE:     514771
LLC WQ	ACCESS:     132221	FORWARD:          4	MERGED:          0	TO_CACHE:     132221
LLC PQ	ACCESS:     654440	FORWARD:          0	MERGED:          0	TO_CACHE:     654440

LLC Dense regions hint to LLC: 0

RAW hits: 1036393
Loads Generated: 11434634
Loads sent to L1D: 10398240
Stores Generated: 5225429
Stores sent to L1D: 5225435
Major fault: 0 Minor fault: 5918
Allocated PAGES: 5918
I-Shadow cache 408 bytes
Touched + WorthPF tables 6144 bytes 
MMA filter 174 bytes 
FNL filter 272 bytes 
TOTAL PREFETCHER STORAGE SIZE: 25174 bytes
CPU 0 L1I next line prefetcher final stats

stream: 
stream:times selected: 150547
stream:pref_filled: 32023
stream:pref_useful: 8750
stream:pref_late: 1206
stream:misses: 1468
stream:misses_by_poll: 0

CS: 
CS:times selected: 23800
CS:pref_filled: 12429
CS:pref_useful: 10511
CS:pref_late: 2800
CS:misses: 6220
CS:misses_by_poll: 0

CPLX: 
CPLX:times selected: 125433
CPLX:pref_filled: 11758
CPLX:pref_useful: 1790
CPLX:pref_late: 447
CPLX:misses: 10553
CPLX:misses_by_poll: 0

NL_L1: 
NL:times selected: 699
NL:pref_filled: 312
NL:pref_useful: 32
NL:pref_late: 5
NL:misses: 59
NL:misses_by_poll: 0

total selections: 300479
total_filled: 4756
total_useful: 3050
total_late: 4711
total_polluted: 0
total_misses_after_warmup: 21976
conflicts: 117859
Degree Incremented Times: 15548
Degree Decremented Times: 169320

L1 IP Table Write Accesses: 190717
L1 IP Table Read Accesses: 72858
L1 RST Write Accesses: 8856
L1 RST Read Accesses: 17712
L1 CSPT Write Accesses: 8856
L1 CSPT Read Accesses: 14553
L1 RR Filter Tag Write Accesses: 7457
L1 RR Filter Tag Read Accesses: 596040
L1 IP Table Tag Write Accesses: 318164
L1 IP Table Tag Read Accesses: 318164
L1 RST Tag Write Accesses: 0
L1 RST Tag Read Accesses: 67089
L1 RR Filter Write Accesses: 0
L1 RR Filter Read Accesses: 19979
test: 42124
L2 IP Table Read Accesses: 28679
L2 IP Table Write Accesses: 43467
L2 IP Table Tag Read Accesses: 23596
L2 IP Table Tag Write Accesses: 23596

DRAM Statistics
 CHANNEL 0
 RQ ROW_BUFFER_HIT:      11458  ROW_BUFFER_MISS:      57951
 DBUS_CONGESTED:         50
 WQ ROW_BUFFER_HIT:       9405  ROW_BUFFER_MISS:      41873  FULL:          0

 AVG_CONGESTED_CYCLE: 4
 All warmup complete: 2
Channel 0 Bank busy for read cycles: 0
Channel 0 Bank busy for write cycles: 0
Channel 0
Rank 0
0banks busy for read cycles: 58078277
0banks busy for write cycles: 24721
1banks busy for read cycles: 5599715
1banks busy for write cycles: 3349736
2banks busy for read cycles: 1126882
2banks busy for write cycles: 1023248
3banks busy for read cycles: 221885
3banks busy for write cycles: 326818
4banks busy for read cycles: 73881
4banks busy for write cycles: 153169
5banks busy for read cycles: 31693
5banks busy for write cycles: 101240
6banks busy for read cycles: 21809
6banks busy for write cycles: 77349
7banks busy for read cycles: 11540
7banks busy for write cycles: 83259
8banks busy for read cycles: 10189
8banks busy for write cycles: 109385

CPU 0 Branch Prediction Accuracy: 99.4607% MPKI: 1.00288 Average ROB Occupancy at Mispredict: 62.9143
Branch types
NOT_BRANCH: 40700959 81.4019%
BRANCH_DIRECT_JUMP: 469808 0.939616%
BRANCH_INDIRECT: 153732 0.307464%
BRANCH_CONDITIONAL: 6944058 13.8881%
BRANCH_DIRECT_CALL: 679877 1.35975%
BRANCH_INDIRECT_CALL: 168745 0.33749%
BRANCH_RETURN: 882491 1.76498%
BRANCH_OTHER: 0 0%

DRAM PAGES: 1048576
Allocated PAGES: 5918
