
*** ChampSim Multicore Out-of-Order Simulator ***

Warmup Instructions: 50000000
Simulation Instructions: 50000000
Number of CPUs: 1
LLC sets: 2048
LLC ways: 16
Off-chip DRAM Size: 4096 MB Channels: 1 Width: 64-bit Data Rate: 6400 MT/s
CPU 0 runs ../IPC-traces//server_034.champsimtrace.xz
.xz
NUM_OF_IPS_IN_CRITICAL_IP_TRAINING: 64
NUM_OF_CRITICAL_IP_TRAINING_TABLE_WAYS: 2
NUM_OF_CRITICAL_IP_TRAINING_TABLE_SETS: 32
WOBBLY_CRITICAL_IP_CACHE_SETS: 32
WOBBLY_CRITICAL_IP_CACHE_WAYS: 4
BTB has LRU replacement policy
ITLB has LRU replacement policy
DTLB has LRU replacement policy
STLB has LRU replacement policy
CPU 0 L1I next line prefetcher
L1I has LRU replacement policy
IP Table Entries: 256
L1D has LRU replacement policy
IP_Table L2 entries: 256
Initialize SRRIP state for L2C
Initialize DRRIP state for LLC
Heartbeat CPU 0 instructions: 10000000 cycles: 2760784 heartbeat IPC: 3.62216 cumulative IPC: 3.62216 (Simulation time: 0 hr 4 min 7 sec) 
Heartbeat CPU 0 instructions: 20000000 cycles: 5516364 heartbeat IPC: 3.629 cumulative IPC: 3.62558 (Simulation time: 0 hr 7 min 17 sec) 
Heartbeat CPU 0 instructions: 30000003 cycles: 8275645 heartbeat IPC: 3.62413 cumulative IPC: 3.6251 (Simulation time: 0 hr 10 min 13 sec) 
Heartbeat CPU 0 instructions: 40000001 cycles: 11035097 heartbeat IPC: 3.62391 cumulative IPC: 3.6248 (Simulation time: 0 hr 12 min 44 sec) 
Heartbeat CPU 0 instructions: 50000000 cycles: 13794457 heartbeat IPC: 3.62403 cumulative IPC: 3.62464 (Simulation time: 0 hr 15 min 13 sec) 

Warmup complete CPU 0 instructions: 50000002 cycles: 13794458 (Simulation time: 0 hr 15 min 13 sec) 

% increase in all ip prefetch 324.156
% increase in all ip prefetch 0.0211808
Heartbeat CPU 0 instructions: 60000002 cycles: 26375678 heartbeat IPC: 0.794836 cumulative IPC: 0.794835 (Simulation time: 0 hr 17 min 37 sec) 
Heartbeat CPU 0 instructions: 70000003 cycles: 38971784 heartbeat IPC: 0.793896 cumulative IPC: 0.794366 (Simulation time: 0 hr 20 min 1 sec) 
Heartbeat CPU 0 instructions: 80000001 cycles: 51521808 heartbeat IPC: 0.796811 cumulative IPC: 0.795179 (Simulation time: 0 hr 22 min 24 sec) 
Heartbeat CPU 0 instructions: 90000002 cycles: 64067487 heartbeat IPC: 0.797087 cumulative IPC: 0.795655 (Simulation time: 0 hr 24 min 48 sec) 
Heartbeat CPU 0 instructions: 100000003 cycles: 76673485 heartbeat IPC: 0.793273 cumulative IPC: 0.795178 (Simulation time: 0 hr 27 min 6 sec) 
Finished CPU 0 instructions: 50000001 cycles: 62879027 cumulative IPC: 0.795178 (Simulation time: 0 hr 27 min 6 sec) 

ChampSim completed all CPUs

Region of Interest Statistics

CPU 0 cumulative IPC: 0.795178 instructions: 50000001 cycles: 62879027

CPU 0 Average Load ROB stall cycles: 1.64956e+07
CPU 0 Fraction of times ROB stalled by Loads: 36.4637
CPU 0 Percentage of Load stall cycles in Total stall cycles: 2.51762e+08
Issued all: 26276135
Issued LT all: 20495332
rob_not_full_when_issued_lt_all: 20201549
Issued LT one: 15414407
rob_not_full_when_issued_lt_one: 15168822
critical_ip_candidate_identification_operations: 5670552
critical_ip_candidate_identification_operation_per_cycle: 0.0901819
 Total stall cycles: 50946338
 Total load stall cycles: 128263370596064
Unique Load IPs: 8292
CPU 0 NUM of IPS identified critical: 13
CPU 0 Num of Load IPs stalling ROB: 6906
Threshold modification factor: -1
Max PIST entries: 64
Min PIST entries: 0
Avg PIST entries: 32
Trouble in retire width: 0.861774
MaC = Marked as critical.
lt_50_percent_before_Mac: 12
gt_90_percent_before_Mac: 1
gt_75_percent_before_Mac: 0
gt_50_percent_before_Mac: 0
stall_proportion_bin_same_before_after: 0
stall_proportion_bin_lower_before_after: 0
stall_proportion_bin_upper_before_after: 0
average_stall_proportion_before: 0.0599429
average_stall_proportion_after: 0.0593827
Critical IP stalls, total frequency: 17605
Non-critical IP stalls, total frequency: 2817671
Total Freq all stalling IPs: 2835276
Critical_IP_Detector_Accuracy_70: 0.461538
Critical_IP_Detector_Accuracy_80: 0.461538
Critical_IP_Detector_Accuracy_90: 0.538462
Critical_IP_Detector_Coverage_70: 0.00780234
Critical_IP_Detector_Coverage_80: 0.00610376
Critical_IP_Detector_Coverage_90: 0.00559552
stat_90_percent_critical_ip_stalls_freq: 2552418
stat_90_percent_non_critical_ip_stalls_freq: 282858
AVERAGE_ROB_Occupancy_90_Percent_Critical_IP_Stalls: 55.6271
AVERAGE_ROB_Occupancy_90_Percent_Non_Critical_IP_Stalls: 53.9329
Critical_IP_ROB_Stalls_Bucket_0: 2281
Non-critical_IP_ROB_Stalls_Bucket_0: 1600530
Critical_IP_ROB_Stalls_Bucket_1: 2728
Non-critical_IP_ROB_Stalls_Bucket_1: 859713
Critical_IP_ROB_Stalls_Bucket_2: 393
Non-critical_IP_ROB_Stalls_Bucket_2: 274166
Critical_IP_ROB_Stalls_Bucket_3: 442
Non-critical_IP_ROB_Stalls_Bucket_3: 64208
Critical_IP_ROB_Stalls_Bucket_4: 734
Non-critical_IP_ROB_Stalls_Bucket_4: 8633
Critical_IP_ROB_Stalls_Bucket_5: 1069
Non-critical_IP_ROB_Stalls_Bucket_5: 2998
Critical_IP_ROB_Stalls_Bucket_6: 9958
Non-critical_IP_ROB_Stalls_Bucket_6: 7423
0 => IPs accounting for >50 percent of stalls, 1 => 55, 2 => 60, 3 => 65 and so on till 90.
percent50: 50.039 num IPs:  361
percent55: 55.0473 num IPs: 463
percent60: 60.0461 num IPs: 565
percent65: 65.0396 num IPs: 667
percent70: 70.003 num IPs: 769
percent75: 75.0092 num IPs: 874
percent80: 80.0007 num IPs: 983
percent85: 85.0093 num IPs: 1102
percent90: 90.0237 num IPs: 1251
Critical_ROB_Stalls_Percent_0_Bucket_0: 828093
Non-critical_ROB_Stalls_Percent_0_Bucket_0: 774718
Critical_ROB_Stalls_Percent_0_Bucket_1: 419935
Non-critical_ROB_Stalls_Percent_0_Bucket_1: 442506
Critical_ROB_Stalls_Percent_0_Bucket_2: 133469
Non-critical_ROB_Stalls_Percent_0_Bucket_2: 141090
Critical_ROB_Stalls_Percent_0_Bucket_3: 22294
Non-critical_ROB_Stalls_Percent_0_Bucket_3: 42356
Critical_ROB_Stalls_Percent_0_Bucket_4: 4377
Non-critical_ROB_Stalls_Percent_0_Bucket_4: 4990
Critical_ROB_Stalls_Percent_0_Bucket_5: 1250
Non-critical_ROB_Stalls_Percent_0_Bucket_5: 2817
Critical_ROB_Stalls_Percent_0_Bucket_6: 9325
Non-critical_ROB_Stalls_Percent_0_Bucket_6: 8056
Critical_ROB_Stalls_Percent_1_Bucket_0: 882200
Non-critical_ROB_Stalls_Percent_1_Bucket_0: 720611
Critical_ROB_Stalls_Percent_1_Bucket_1: 482361
Non-critical_ROB_Stalls_Percent_1_Bucket_1: 380080
Critical_ROB_Stalls_Percent_1_Bucket_2: 151684
Non-critical_ROB_Stalls_Percent_1_Bucket_2: 122875
Critical_ROB_Stalls_Percent_1_Bucket_3: 27388
Non-critical_ROB_Stalls_Percent_1_Bucket_3: 37262
Critical_ROB_Stalls_Percent_1_Bucket_4: 6008
Non-critical_ROB_Stalls_Percent_1_Bucket_4: 3359
Critical_ROB_Stalls_Percent_1_Bucket_5: 1751
Non-critical_ROB_Stalls_Percent_1_Bucket_5: 2316
Critical_ROB_Stalls_Percent_1_Bucket_6: 9348
Non-critical_ROB_Stalls_Percent_1_Bucket_6: 8033
Critical_ROB_Stalls_Percent_2_Bucket_0: 948727
Non-critical_ROB_Stalls_Percent_2_Bucket_0: 654084
Critical_ROB_Stalls_Percent_2_Bucket_1: 536829
Non-critical_ROB_Stalls_Percent_2_Bucket_1: 325612
Critical_ROB_Stalls_Percent_2_Bucket_2: 169658
Non-critical_ROB_Stalls_Percent_2_Bucket_2: 104901
Critical_ROB_Stalls_Percent_2_Bucket_3: 30145
Non-critical_ROB_Stalls_Percent_2_Bucket_3: 34505
Critical_ROB_Stalls_Percent_2_Bucket_4: 6009
Non-critical_ROB_Stalls_Percent_2_Bucket_4: 3358
Critical_ROB_Stalls_Percent_2_Bucket_5: 1751
Non-critical_ROB_Stalls_Percent_2_Bucket_5: 2316
Critical_ROB_Stalls_Percent_2_Bucket_6: 9352
Non-critical_ROB_Stalls_Percent_2_Bucket_6: 8029
Critical_ROB_Stalls_Percent_3_Bucket_0: 1000465
Non-critical_ROB_Stalls_Percent_3_Bucket_0: 602346
Critical_ROB_Stalls_Percent_3_Bucket_1: 582368
Non-critical_ROB_Stalls_Percent_3_Bucket_1: 280073
Critical_ROB_Stalls_Percent_3_Bucket_2: 199844
Non-critical_ROB_Stalls_Percent_3_Bucket_2: 74715
Critical_ROB_Stalls_Percent_3_Bucket_3: 42972
Non-critical_ROB_Stalls_Percent_3_Bucket_3: 21678
Critical_ROB_Stalls_Percent_3_Bucket_4: 6260
Non-critical_ROB_Stalls_Percent_3_Bucket_4: 3107
Critical_ROB_Stalls_Percent_3_Bucket_5: 1836
Non-critical_ROB_Stalls_Percent_3_Bucket_5: 2231
Critical_ROB_Stalls_Percent_3_Bucket_6: 10305
Non-critical_ROB_Stalls_Percent_3_Bucket_6: 7076
Critical_ROB_Stalls_Percent_4_Bucket_0: 1072856
Non-critical_ROB_Stalls_Percent_4_Bucket_0: 529955
Critical_ROB_Stalls_Percent_4_Bucket_1: 626422
Non-critical_ROB_Stalls_Percent_4_Bucket_1: 236019
Critical_ROB_Stalls_Percent_4_Bucket_2: 216480
Non-critical_ROB_Stalls_Percent_4_Bucket_2: 58079
Critical_ROB_Stalls_Percent_4_Bucket_3: 49563
Non-critical_ROB_Stalls_Percent_4_Bucket_3: 15087
Critical_ROB_Stalls_Percent_4_Bucket_4: 6336
Non-critical_ROB_Stalls_Percent_4_Bucket_4: 3031
Critical_ROB_Stalls_Percent_4_Bucket_5: 1936
Non-critical_ROB_Stalls_Percent_4_Bucket_5: 2131
Critical_ROB_Stalls_Percent_4_Bucket_6: 11184
Non-critical_ROB_Stalls_Percent_4_Bucket_6: 6197
Critical_ROB_Stalls_Percent_5_Bucket_0: 1147095
Non-critical_ROB_Stalls_Percent_5_Bucket_0: 455716
Critical_ROB_Stalls_Percent_5_Bucket_1: 678918
Non-critical_ROB_Stalls_Percent_5_Bucket_1: 183523
Critical_ROB_Stalls_Percent_5_Bucket_2: 227434
Non-critical_ROB_Stalls_Percent_5_Bucket_2: 47125
Critical_ROB_Stalls_Percent_5_Bucket_3: 53657
Non-critical_ROB_Stalls_Percent_5_Bucket_3: 10993
Critical_ROB_Stalls_Percent_5_Bucket_4: 6479
Non-critical_ROB_Stalls_Percent_5_Bucket_4: 2888
Critical_ROB_Stalls_Percent_5_Bucket_5: 1946
Non-critical_ROB_Stalls_Percent_5_Bucket_5: 2121
Critical_ROB_Stalls_Percent_5_Bucket_6: 11187
Non-critical_ROB_Stalls_Percent_5_Bucket_6: 6194
Critical_ROB_Stalls_Percent_6_Bucket_0: 1253856
Non-critical_ROB_Stalls_Percent_6_Bucket_0: 348955
Critical_ROB_Stalls_Percent_6_Bucket_1: 704738
Non-critical_ROB_Stalls_Percent_6_Bucket_1: 157703
Critical_ROB_Stalls_Percent_6_Bucket_2: 234223
Non-critical_ROB_Stalls_Percent_6_Bucket_2: 40336
Critical_ROB_Stalls_Percent_6_Bucket_3: 55607
Non-critical_ROB_Stalls_Percent_6_Bucket_3: 9043
Critical_ROB_Stalls_Percent_6_Bucket_4: 6644
Non-critical_ROB_Stalls_Percent_6_Bucket_4: 2723
Critical_ROB_Stalls_Percent_6_Bucket_5: 1983
Non-critical_ROB_Stalls_Percent_6_Bucket_5: 2084
Critical_ROB_Stalls_Percent_6_Bucket_6: 11187
Non-critical_ROB_Stalls_Percent_6_Bucket_6: 6194
Critical_ROB_Stalls_Percent_7_Bucket_0: 1351435
Non-critical_ROB_Stalls_Percent_7_Bucket_0: 251376
Critical_ROB_Stalls_Percent_7_Bucket_1: 738040
Non-critical_ROB_Stalls_Percent_7_Bucket_1: 124401
Critical_ROB_Stalls_Percent_7_Bucket_2: 241347
Non-critical_ROB_Stalls_Percent_7_Bucket_2: 33212
Critical_ROB_Stalls_Percent_7_Bucket_3: 57600
Non-critical_ROB_Stalls_Percent_7_Bucket_3: 7050
Critical_ROB_Stalls_Percent_7_Bucket_4: 7036
Non-critical_ROB_Stalls_Percent_7_Bucket_4: 2331
Critical_ROB_Stalls_Percent_7_Bucket_5: 2387
Non-critical_ROB_Stalls_Percent_7_Bucket_5: 1680
Critical_ROB_Stalls_Percent_7_Bucket_6: 12402
Non-critical_ROB_Stalls_Percent_7_Bucket_6: 4979
Critical_ROB_Stalls_Percent_8_Bucket_0: 1434052
Non-critical_ROB_Stalls_Percent_8_Bucket_0: 168759
Critical_ROB_Stalls_Percent_8_Bucket_1: 778832
Non-critical_ROB_Stalls_Percent_8_Bucket_1: 83609
Critical_ROB_Stalls_Percent_8_Bucket_2: 254298
Non-critical_ROB_Stalls_Percent_8_Bucket_2: 20261
Critical_ROB_Stalls_Percent_8_Bucket_3: 60304
Non-critical_ROB_Stalls_Percent_8_Bucket_3: 4346
Critical_ROB_Stalls_Percent_8_Bucket_4: 7749
Non-critical_ROB_Stalls_Percent_8_Bucket_4: 1618
Critical_ROB_Stalls_Percent_8_Bucket_5: 2720
Non-critical_ROB_Stalls_Percent_8_Bucket_5: 1347
Critical_ROB_Stalls_Percent_8_Bucket_6: 14463
Non-critical_ROB_Stalls_Percent_8_Bucket_6: 2918
Average ROB occupancy Load Stall Begin: 45.5476
Average ROB occupancy Load Stall End: 55.4581
Min ROB occupancy Load Stall Begin: 1
Max ROB occupancy Load Stall Begin: 352
Min ROB occupancy Load Stall End: 1
Max ROB occupancy Load Stall End: 352
Average ROB occupancy Critical Load Stall Begin: 251.812
Average ROB occupancy Critical Load Stall End: 262.018
Min ROB occupancy Critical Load Stall Begin: 2
Max ROB occupancy Critical Load Stall Begin: 352
Min ROB occupancy Critical Load Stall End: 2
Max ROB occupancy Critical Load Stall End: 352
 ROB Load Stall Begin Bucket Count 0: 1925486
 ROB Load Stall End Bucket Count 0: 1602811
 ROB Critical Load Stall Begin Bucket Count 0: 2363
 ROB Critical Load Stall End Bucket Count 0: 1410
 ROB Load Stall Begin Bucket Count 1: 652601
 ROB Load Stall End Bucket Count 1: 862441
 ROB Critical Load Stall Begin Bucket Count 1: 1143
 ROB Critical Load Stall End Bucket Count 1: 2030
 ROB Load Stall Begin Bucket Count 2: 186898
 ROB Load Stall End Bucket Count 2: 274559
 ROB Critical Load Stall Begin Bucket Count 2: 390
 ROB Critical Load Stall End Bucket Count 2: 345
 ROB Load Stall Begin Bucket Count 3: 43411
 ROB Load Stall End Bucket Count 3: 64650
 ROB Critical Load Stall Begin Bucket Count 3: 426
 ROB Critical Load Stall End Bucket Count 3: 322
 ROB Load Stall Begin Bucket Count 4: 6581
 ROB Load Stall End Bucket Count 4: 9367
 ROB Critical Load Stall Begin Bucket Count 4: 543
 ROB Critical Load Stall End Bucket Count 4: 562
 ROB Load Stall Begin Bucket Count 5: 4890
 ROB Load Stall End Bucket Count 5: 4067
 ROB Critical Load Stall Begin Bucket Count 5: 1662
 ROB Critical Load Stall End Bucket Count 5: 909
 ROB Load Stall Begin Bucket Count 6: 15409
 ROB Load Stall End Bucket Count 6: 17381
 ROB Critical Load Stall Begin Bucket Count 6: 8609
 ROB Critical Load Stall End Bucket Count 6: 9558
PIST Tag Read Accesses: 3021128
PIST Read Accesses: 1510564
PIST Tag Write Accesses: 3021128
PIST Write Accesses: 1510564
Criticality detector called times: 2820140
Max global_stall_cycles_count: 2585067
Threshold Modified: 1 times, factor: -1
Sturdy critical IP cache stats: 
 Unused entries: 0
CIC Tag Read Accesses: 0
CIC Read Accesses: 0
CIC Tag Write Accesses: 0
CIC Write Accesses: 0
Wobbly critical IP cache stats: 
 Unused entries: 115
CIC Tag Read Accesses: 76807445
CIC Read Accesses: 0
CIC Tag Write Accesses: 4943
CIC Write Accesses: 0
ITLB TOTAL     ACCESS:   10602897  HIT:    9925886  MISS:     677011  HIT %:    93.6148  MISS %:    6.38515   MPKI: 13.5402
ITLB LOAD TRANSLATION ACCESS:    8291130  HIT:    8270734  MISS:      20396  HIT %:     99.754  MISS %:   0.245998   MPKI: 0.40792
ITLB TRANSLATION FROM L1D PREFETCHER ACCESS:    2311767  HIT:    1655152  MISS:     656615  HIT %:    71.5968  MISS %:    28.4032   MPKI: 13.1323
ITLBprefetch_cycle_count: 0 prefetches_per_prefetch_cycle: -nan
ITLB PREFETCH  REQUESTED:          0  ISSUED:          0  USEFUL:     548027  USELESS:     108585
ITLB USEFUL LOAD PREFETCHES:     548027 PREFETCH ISSUED TO LOWER LEVEL:          0  ACCURACY: inf
ITLB TIMELY PREFETCHES:     548027 LATE PREFETCHES: 51 DROPPED PREFETCHES: 0
ITLB PREFETCHES SAME FILL-ORIGIN LEVEL: 0 DIFFERENT FILL-ORIGIN LEVEL: 0
ITLB AVERAGE MISS LATENCY: 3473.85 cycles
ITLB RQ	ACCESS:   16123618	FORWARD:          0	MERGED:    5485426	TO_CACHE:   10638192

DTLB TOTAL     ACCESS:    9479005  HIT:    9065399  MISS:     413606  HIT %:    95.6366  MISS %:    4.36339   MPKI: 8.27212
DTLB LOAD TRANSLATION ACCESS:    9479005  HIT:    9065399  MISS:     413606  HIT %:    95.6366  MISS %:    4.36339   MPKI: 8.27212
DTLBprefetch_cycle_count: 0 prefetches_per_prefetch_cycle: -nan
DTLB PREFETCH  REQUESTED:          0  ISSUED:          0  USEFUL:          0  USELESS:          0
DTLB USEFUL LOAD PREFETCHES:          0 PREFETCH ISSUED TO LOWER LEVEL:          0  ACCURACY: -nan
DTLB TIMELY PREFETCHES:          0 LATE PREFETCHES: 0 DROPPED PREFETCHES: 0
DTLB PREFETCHES SAME FILL-ORIGIN LEVEL: 0 DIFFERENT FILL-ORIGIN LEVEL: 0
DTLB AVERAGE MISS LATENCY: 9.07771 cycles
DTLB RQ	ACCESS:   13396361	FORWARD:          0	MERGED:    3900919	TO_CACHE:    9495442

STLB TOTAL     ACCESS:    1211470  HIT:    1210665  MISS:        805  HIT %:    99.9336  MISS %:  0.0664482   MPKI: 0.0161
STLB LOAD TRANSLATION ACCESS:     433951  HIT:     433415  MISS:        536  HIT %:    99.8765  MISS %:   0.123516   MPKI: 0.01072
STLB TRANSLATION FROM L1D PREFETCHER ACCESS:     777519  HIT:     777250  MISS:        269  HIT %:    99.9654  MISS %:  0.0345972   MPKI: 0.00538
STLBprefetch_cycle_count: 0 prefetches_per_prefetch_cycle: -nan
STLB PREFETCH  REQUESTED:          0  ISSUED:          0  USEFUL:        154  USELESS:        115
STLB USEFUL LOAD PREFETCHES:        154 PREFETCH ISSUED TO LOWER LEVEL:          0  ACCURACY: inf
STLB TIMELY PREFETCHES:        154 LATE PREFETCHES: 0 DROPPED PREFETCHES: 0
STLB PREFETCHES SAME FILL-ORIGIN LEVEL: 0 DIFFERENT FILL-ORIGIN LEVEL: 0
STLB AVERAGE MISS LATENCY: 39.7615 cycles
STLB RQ	ACCESS:    1214726	FORWARD:          0	MERGED:       3256	TO_CACHE:    1211470

STLB Hit, L1D data hit: 0
STLB Hit, L2C data hit: 0
STLB Hit, LLC data hit: 0
STLB Hit, LLC data miss: 0
STLB STLB hints to L2: 0
L1D TOTAL     ACCESS:   13389762  HIT:   12696964  MISS:     692798  HIT %:    94.8259  MISS %:    5.17409   MPKI: 13.856
L1D LOAD      ACCESS:    7001836  HIT:    6456353  MISS:     545483  HIT %:    92.2094  MISS %:    7.79057   MPKI: 10.9097
L1D RFO       ACCESS:    6268060  HIT:    6173974  MISS:      94086  HIT %:     98.499  MISS %:    1.50104   MPKI: 1.88172
L1D PREFETCH  ACCESS:     119866  HIT:      66637  MISS:      53229  HIT %:    55.5929  MISS %:    44.4071   MPKI: 1.06458
L1Dprefetch_cycle_count: 124140 prefetches_per_prefetch_cycle: 2.00012
L1D PREFETCH  REQUESTED:     248295  ISSUED:     248295  USEFUL:      10360  USELESS:      42896
L1D USEFUL LOAD PREFETCHES:      10360 PREFETCH ISSUED TO LOWER LEVEL:      54098  ACCURACY: 19.1504
L1D TIMELY PREFETCHES:      10360 LATE PREFETCHES: 841 DROPPED PREFETCHES: 0
L1D PREFETCHES SAME FILL-ORIGIN LEVEL: 54098 DIFFERENT FILL-ORIGIN LEVEL: 0
L1D AVERAGE MISS LATENCY: 47566.8 cycles
L1D RQ	ACCESS:   10532145	FORWARD:          0	MERGED:    3352619	TO_CACHE:    7021731
L1D WQ	ACCESS:    6506011	FORWARD:     157872	MERGED:     131381	TO_CACHE:    6374630
L1D PQ	ACCESS:     124186	FORWARD:          0	MERGED:          0	TO_CACHE:     124109

L1D UNIQUE REGIONS ACCESSED: 0
L1D REGIONS CONFLICTS: 0
L1D Cross Page Prefetch Requests: 0
L1D Same Page Prefetch Requests: 417937
L1D ROI Sum of L1D PQ occupancy: 1610844
L1D PREFETCHES PUSHED FROM L2C: 0
L1I TOTAL     ACCESS:   16051309  HIT:   11510852  MISS:    4540457  HIT %:    71.7129  MISS %:    28.2871   MPKI: 90.8091
L1I LOAD      ACCESS:    9786292  HIT:    9753550  MISS:      32742  HIT %:    99.6654  MISS %:    0.33457   MPKI: 0.65484
L1I PREFETCH  ACCESS:    6265017  HIT:    1757302  MISS:    4507715  HIT %:    28.0494  MISS %:    71.9506   MPKI: 90.1543
L1Iprefetch_cycle_count: 0 prefetches_per_prefetch_cycle: inf
L1I PREFETCH  REQUESTED:    6491758  ISSUED:    6475055  USEFUL:    3401178  USELESS:    1106518
L1I USEFUL LOAD PREFETCHES:    3401178 PREFETCH ISSUED TO LOWER LEVEL:    4519317  ACCURACY: 75.2587
L1I TIMELY PREFETCHES:    3401178 LATE PREFETCHES: 11601 DROPPED PREFETCHES: 0
L1I PREFETCHES SAME FILL-ORIGIN LEVEL: 4519317 DIFFERENT FILL-ORIGIN LEVEL: 0
L1I AVERAGE MISS LATENCY: 115199 cycles
L1I RQ	ACCESS:   14218765	FORWARD:          0	MERGED:    4427654	TO_CACHE:    9791111
L1I PQ	ACCESS:    6475055	FORWARD:          0	MERGED:     142548	TO_CACHE:    6332507

BTB TOTAL     ACCESS:    6346791  HIT:    5354841  MISS:     991950  HIT %:    84.3708  MISS %:    15.6292   MPKI: 19.839
BTB BRANCH_DIRECT_JUMP	ACCESS:     771318  HIT:     694201  MISS:      77117
BTB BRANCH_INDIRECT	ACCESS:     108662  HIT:      73806  MISS:      34856
BTB BRANCH_CONDITIONAL	ACCESS:    2942979  HIT:    2730770  MISS:     212209
BTB BRANCH_DIRECT_CALL	ACCESS:    1049632  HIT:     929791  MISS:     119841
BTB BRANCH_INDIRECT_CALL	ACCESS:     212280  HIT:     143929  MISS:      68351
BTB BRANCH_RETURN	ACCESS:    1261920  HIT:     782344  MISS:     479576
BTB BRANCH_OTHER ACCESS:          0  HIT:          0  MISS:          0

L2C TOTAL     ACCESS:    7588622  HIT:    7361807  MISS:     226815  HIT %:    97.0111  MISS %:    2.98888   MPKI: 4.5363
L2C LOAD      ACCESS:     565747  HIT:     507955  MISS:      57792  HIT %:    89.7848  MISS %:    10.2152   MPKI: 1.15584
L2C DATA LOAD MPKI: 1.14036
L2C INSTRUCTION LOAD MPKI: 0.01548
L2C RFO       ACCESS:      94057  HIT:      84237  MISS:       9820  HIT %:    89.5595  MISS %:    10.4405   MPKI: 0.1964
L2C PREFETCH  ACCESS:    6683417  HIT:    6532817  MISS:     150600  HIT %:    97.7467  MISS %:    2.25334   MPKI: 3.012
L2C DATA PREFETCH MPKI: 1.48828
L2C INSTRUCTION PREFETCH MPKI: 1.52372
L2C WRITEBACK ACCESS:     244587  HIT:     236292  MISS:       8295  HIT %:    96.6086  MISS %:    3.39143   MPKI: 0.1659
L2C LOAD TRANSLATION ACCESS:        544  HIT:        390  MISS:        154  HIT %:    71.6912  MISS %:    28.3088   MPKI: 0.00308
L2C TRANSLATION FROM L1D PREFETCHER ACCESS:        270  HIT:        116  MISS:        154  HIT %:     42.963  MISS %:     57.037   MPKI: 0.00308
L2Cprefetch_cycle_count: 4871565 prefetches_per_prefetch_cycle: 1.00076
L2C PREFETCH  REQUESTED:    4875268  ISSUED:    4875268  USEFUL:      18380  USELESS:     132668
L2C USEFUL LOAD PREFETCHES:      18380 PREFETCH ISSUED TO LOWER LEVEL:     151137  ACCURACY: 12.1612
L2C TIMELY PREFETCHES:      18380 LATE PREFETCHES: 537 DROPPED PREFETCHES: 0
L2C PREFETCHES SAME FILL-ORIGIN LEVEL: 65887 DIFFERENT FILL-ORIGIN LEVEL: 0
L2C AVERAGE MISS LATENCY: 30.9177 cycles
L2C RQ	ACCESS:     660655	FORWARD:          0	MERGED:          0	TO_CACHE:     660618
L2C WQ	ACCESS:     244587	FORWARD:         38	MERGED:          0	TO_CACHE:     244587
L2C PQ	ACCESS:    9448683	FORWARD:          0	MERGED:    2760754	TO_CACHE:    6687928

L2C Instructions Evicting Data 35988
L2C Translations Evicting Data 292
L2C Data Evicting Data 107766
L2C Instructions Evicting Instructions 40958
L2C Translations Evicting Instructions 15
L2C Data Evicting Instructions 33207
L2C Instructions Evicting Translations 14
L2C Translations Evicting Translations 1
L2C Data Evicting Translations 279
L2C Dense regions hint from L2: 0
PSCL5 TOTAL     ACCESS:        805  HIT:        805  MISS:          0  HIT %:        100  MISS %:          0   MPKI: 0
PSCL5 LOAD TRANSLATION ACCESS:        536  HIT:        536  MISS:          0  HIT %:        100  MISS %:          0   MPKI: 0
PSCL5 TRANSLATION FROM L1D PREFETCHER ACCESS:        269  HIT:        269  MISS:          0  HIT %:        100  MISS %:          0   MPKI: 0
PSCL5prefetch_cycle_count: 0 prefetches_per_prefetch_cycle: -nan
PSCL5 PREFETCH  REQUESTED:          0  ISSUED:          0  USEFUL:          0  USELESS:          0
PSCL5 USEFUL LOAD PREFETCHES:          0 PREFETCH ISSUED TO LOWER LEVEL:          0  ACCURACY: -nan
PSCL5 TIMELY PREFETCHES:          0 LATE PREFETCHES: 0 DROPPED PREFETCHES: 0
PSCL5 PREFETCHES SAME FILL-ORIGIN LEVEL: 0 DIFFERENT FILL-ORIGIN LEVEL: 0

PSCL4 TOTAL     ACCESS:        531  HIT:        530  MISS:          1  HIT %:    99.8117  MISS %:   0.188324   MPKI: 2e-05
PSCL4 LOAD TRANSLATION ACCESS:        350  HIT:        349  MISS:          1  HIT %:    99.7143  MISS %:   0.285714   MPKI: 2e-05
PSCL4 TRANSLATION FROM L1D PREFETCHER ACCESS:        181  HIT:        181  MISS:          0  HIT %:        100  MISS %:          0   MPKI: 0
PSCL4prefetch_cycle_count: 0 prefetches_per_prefetch_cycle: -nan
PSCL4 PREFETCH  REQUESTED:          0  ISSUED:          0  USEFUL:          0  USELESS:          0
PSCL4 USEFUL LOAD PREFETCHES:          0 PREFETCH ISSUED TO LOWER LEVEL:          0  ACCURACY: -nan
PSCL4 TIMELY PREFETCHES:          0 LATE PREFETCHES: 0 DROPPED PREFETCHES: 0
PSCL4 PREFETCHES SAME FILL-ORIGIN LEVEL: 0 DIFFERENT FILL-ORIGIN LEVEL: 0

PSCL3 TOTAL     ACCESS:        615  HIT:        614  MISS:          1  HIT %:    99.8374  MISS %:   0.162602   MPKI: 2e-05
PSCL3 LOAD TRANSLATION ACCESS:        434  HIT:        433  MISS:          1  HIT %:    99.7696  MISS %:   0.230415   MPKI: 2e-05
PSCL3 TRANSLATION FROM L1D PREFETCHER ACCESS:        181  HIT:        181  MISS:          0  HIT %:        100  MISS %:          0   MPKI: 0
PSCL3prefetch_cycle_count: 0 prefetches_per_prefetch_cycle: -nan
PSCL3 PREFETCH  REQUESTED:          0  ISSUED:          0  USEFUL:          0  USELESS:          0
PSCL3 USEFUL LOAD PREFETCHES:          0 PREFETCH ISSUED TO LOWER LEVEL:          0  ACCURACY: -nan
PSCL3 TIMELY PREFETCHES:          0 LATE PREFETCHES: 0 DROPPED PREFETCHES: 0
PSCL3 PREFETCHES SAME FILL-ORIGIN LEVEL: 0 DIFFERENT FILL-ORIGIN LEVEL: 0

PSCL2 TOTAL     ACCESS:        805  HIT:        798  MISS:          7  HIT %:    99.1304  MISS %:   0.869565   MPKI: 0.00014
PSCL2 LOAD TRANSLATION ACCESS:        537  HIT:        530  MISS:          7  HIT %:    98.6965  MISS %:    1.30354   MPKI: 0.00014
PSCL2 TRANSLATION FROM L1D PREFETCHER ACCESS:        268  HIT:        268  MISS:          0  HIT %:        100  MISS %:          0   MPKI: 0
PSCL2prefetch_cycle_count: 0 prefetches_per_prefetch_cycle: -nan
PSCL2 PREFETCH  REQUESTED:          0  ISSUED:          0  USEFUL:          0  USELESS:          0
PSCL2 USEFUL LOAD PREFETCHES:          0 PREFETCH ISSUED TO LOWER LEVEL:          0  ACCURACY: -nan
PSCL2 TIMELY PREFETCHES:          0 LATE PREFETCHES: 0 DROPPED PREFETCHES: 0
PSCL2 PREFETCHES SAME FILL-ORIGIN LEVEL: 0 DIFFERENT FILL-ORIGIN LEVEL: 0

LLC TOTAL     ACCESS:     265246  HIT:     261052  MISS:       4194  HIT %:    98.4188  MISS %:    1.58117   MPKI: 0.08388
LLC LOAD      ACCESS:      57357  HIT:      56445  MISS:        912  HIT %:      98.41  MISS %:    1.59004   MPKI: 0.01824
LLC RFO       ACCESS:       9718  HIT:       9227  MISS:        491  HIT %:    94.9475  MISS %:    5.05248   MPKI: 0.00982
LLC PREFETCH  ACCESS:     151136  HIT:     148437  MISS:       2699  HIT %:    98.2142  MISS %:    1.78581   MPKI: 0.05398
LLC WRITEBACK ACCESS:      46727  HIT:      46645  MISS:         82  HIT %:    99.8245  MISS %:   0.175487   MPKI: 0.00164
LLC LOAD TRANSLATION ACCESS:        154  HIT:        144  MISS:         10  HIT %:    93.5065  MISS %:    6.49351   MPKI: 0.0002
LLC TRANSLATION FROM L1D PREFETCHER ACCESS:        154  HIT:        154  MISS:          0  HIT %:        100  MISS %:          0   MPKI: 0
LLCprefetch_cycle_count: 0 prefetches_per_prefetch_cycle: -nan
LLC PREFETCH  REQUESTED:          0  ISSUED:          0  USEFUL:       2184  USELESS:        468
LLC USEFUL LOAD PREFETCHES:       2184 PREFETCH ISSUED TO LOWER LEVEL:       2699  ACCURACY: 80.9189
LLC TIMELY PREFETCHES:       2184 LATE PREFETCHES: 0 DROPPED PREFETCHES: 0
LLC PREFETCHES SAME FILL-ORIGIN LEVEL: 0 DIFFERENT FILL-ORIGIN LEVEL: 0
LLC AVERAGE MISS LATENCY: 111.31 cycles
LLC RQ	ACCESS:      67383	FORWARD:          0	MERGED:          0	TO_CACHE:      67383
LLC WQ	ACCESS:      46727	FORWARD:          1	MERGED:          0	TO_CACHE:      46727
LLC PQ	ACCESS:     151137	FORWARD:          0	MERGED:          0	TO_CACHE:     151136

LLC Dense regions hint to LLC: 0

RAW hits: 1507128
Loads Generated: 12039274
Loads sent to L1D: 10532145
Stores Generated: 6506011
Stores sent to L1D: 6506011
Major fault: 0 Minor fault: 1244
Allocated PAGES: 1244
I-Shadow cache 408 bytes
Touched + WorthPF tables 6144 bytes 
MMA filter 174 bytes 
FNL filter 272 bytes 
TOTAL PREFETCHER STORAGE SIZE: 25174 bytes
CPU 0 L1I next line prefetcher final stats

total_pref_operate_instances_l1: 7021729
dynamic_config_counter_instances_1: 7013993
dynamic_config_counter_instances_2: 3716
dynamic_config_counter_instances_3: 4020
dynamic_config_counter_instances_4: 0
dynamic_config_counter_instances_5: 0
stream: 
stream:times selected: 596922
stream:pref_filled: 91618
stream:pref_useful: 10036
stream:pref_late: 1254
stream:misses: 6476
stream:misses_by_poll: 0

CS: 
CS:times selected: 14216
CS:pref_filled: 6183
CS:pref_useful: 4824
CS:pref_late: 561
CS:misses: 1279
CS:misses_by_poll: 16

CPLX: 
CPLX:times selected: 579719
CPLX:pref_filled: 63925
CPLX:pref_useful: 5727
CPLX:pref_late: 627
CPLX:misses: 27288
CPLX:misses_by_poll: 0

NL_L1: 
NL:times selected: 152718
NL:pref_filled: 44872
NL:pref_useful: 5919
NL:pref_late: 221
NL:misses: 31720
NL:misses_by_poll: 10

total selections: 1343575
total_filled: 53229
total_useful: 10360
total_late: 3138
total_polluted: 26
total_misses_after_warmup: 565376
conflicts: 2924249
Degree Incremented Times: 14930
Degree Decremented Times: 173349

L1 IP Table Write Accesses: 3881946
L1 IP Table Read Accesses: 957697
L1 RST Write Accesses: 312432
L1 RST Read Accesses: 624864
L1 CSPT Write Accesses: 312432
L1 CSPT Read Accesses: 312611
L1 RR Filter Tag Write Accesses: 124186
L1 RR Filter Tag Read Accesses: 4815027
L1 IP Table Tag Write Accesses: 7021729
L1 IP Table Tag Read Accesses: 7021729
L1 RST Tag Write Accesses: 0
L1 RST Tag Read Accesses: 3244223
L1 RR Filter Write Accesses: 0
L1 RR Filter Read Accesses: 160513
test: 289355
total_pref_operate_instances_l2: 5073571
dynamic_config_counter_instances_l2_1: 4801063
dynamic_config_counter_instances_l2_2: 138726
dynamic_config_counter_instances_l2_3: 133782
dynamic_config_counter_instances_l2_4: 0
dynamic_config_counter_instances_l2_5: 0
L2 IP Table Read Accesses: 5198237
L2 IP Table Write Accesses: 10014012
L2 IP Table Tag Read Accesses: 5073571
L2 IP Table Tag Write Accesses: 5073571

DRAM Statistics
 CHANNEL 0
 RQ ROW_BUFFER_HIT:       2338  ROW_BUFFER_MISS:       1774
 DBUS_CONGESTED:          2
 WQ ROW_BUFFER_HIT:         75  ROW_BUFFER_MISS:        741  FULL:          0

 AVG_CONGESTED_CYCLE: 3
 All warmup complete: 2
Channel 0 Bank busy for read cycles: 0
Channel 0 Bank busy for write cycles: 0
Channel 0
Rank 0
0banks busy for read cycles: 62507979
0banks busy for write cycles: 487
1banks busy for read cycles: 181049
1banks busy for write cycles: 69363
2banks busy for read cycles: 66791
2banks busy for write cycles: 19879
3banks busy for read cycles: 18734
3banks busy for write cycles: 7083
4banks busy for read cycles: 2862
4banks busy for write cycles: 3604
5banks busy for read cycles: 146
5banks busy for write cycles: 1051
6banks busy for read cycles: 0
6banks busy for write cycles: 0
7banks busy for read cycles: 0
7banks busy for write cycles: 0
8banks busy for read cycles: 0
8banks busy for write cycles: 0

CPU 0 Branch Prediction Accuracy: 99.926% MPKI: 0.14472 Average ROB Occupancy at Mispredict: 60.6875
Branch types
NOT_BRANCH: 40220859 80.4417%
BRANCH_DIRECT_JUMP: 771318 1.54264%
BRANCH_INDIRECT: 108662 0.217324%
BRANCH_CONDITIONAL: 6375017 12.75%
BRANCH_DIRECT_CALL: 1049632 2.09926%
BRANCH_INDIRECT_CALL: 212280 0.42456%
BRANCH_RETURN: 1261920 2.52384%
BRANCH_OTHER: 0 0%

DRAM PAGES: 1048576
Allocated PAGES: 1244
