
*** ChampSim Multicore Out-of-Order Simulator ***

Warmup Instructions: 50000000
Simulation Instructions: 50000000
Number of CPUs: 1
LLC sets: 2048
LLC ways: 16
Off-chip DRAM Size: 4096 MB Channels: 1 Width: 64-bit Data Rate: 6400 MT/s
CPU 0 runs ../IPC-traces//server_001.champsimtrace.xz
.xz
BTB has LRU replacement policy
ITLB has LRU replacement policy
DTLB has LRU replacement policy
STLB has LRU replacement policy
CPU 0 L1I next line prefetcher
L1I has LRU replacement policy
IP Table Entries: 64
L1D has LRU replacement policy
Initialize SRRIP state for L2C
Initialize DRRIP state for LLC
Heartbeat CPU 0 instructions: 10000003 cycles: 2756955 heartbeat IPC: 3.62719 cumulative IPC: 3.62719 (Simulation time: 0 hr 4 min 18 sec) 
Heartbeat CPU 0 instructions: 20000003 cycles: 5519805 heartbeat IPC: 3.61945 cumulative IPC: 3.62332 (Simulation time: 0 hr 7 min 37 sec) 
Heartbeat CPU 0 instructions: 30000001 cycles: 8277318 heartbeat IPC: 3.62646 cumulative IPC: 3.62436 (Simulation time: 0 hr 10 min 55 sec) 
Heartbeat CPU 0 instructions: 40000001 cycles: 11039783 heartbeat IPC: 3.61996 cumulative IPC: 3.62326 (Simulation time: 0 hr 14 min 12 sec) 
Heartbeat CPU 0 instructions: 50000000 cycles: 13803311 heartbeat IPC: 3.61856 cumulative IPC: 3.62232 (Simulation time: 0 hr 17 min 19 sec) 

Warmup complete CPU 0 instructions: 50000004 cycles: 13803312 (Simulation time: 0 hr 17 min 19 sec) 

Heartbeat CPU 0 instructions: 60000002 cycles: 28162101 heartbeat IPC: 0.696438 cumulative IPC: 0.696437 (Simulation time: 0 hr 21 min 0 sec) 
Heartbeat CPU 0 instructions: 70000001 cycles: 42266479 heartbeat IPC: 0.709 cumulative IPC: 0.702662 (Simulation time: 0 hr 24 min 33 sec) 
Heartbeat CPU 0 instructions: 80000003 cycles: 55952616 heartbeat IPC: 0.730667 cumulative IPC: 0.711756 (Simulation time: 0 hr 28 min 6 sec) 
Heartbeat CPU 0 instructions: 90000002 cycles: 70475750 heartbeat IPC: 0.688557 cumulative IPC: 0.70581 (Simulation time: 0 hr 31 min 40 sec) 
Heartbeat CPU 0 instructions: 100000003 cycles: 84144833 heartbeat IPC: 0.731578 cumulative IPC: 0.710818 (Simulation time: 0 hr 34 min 56 sec) 
Finished CPU 0 instructions: 50000003 cycles: 70341522 cumulative IPC: 0.710818 (Simulation time: 0 hr 34 min 56 sec) 

ChampSim completed all CPUs

Region of Interest Statistics

CPU 0 cumulative IPC: 0.710818 instructions: 50000003 cycles: 70341522

CPU 0 Average Load ROB stall cycles: 2.11427e+07
CPU 0 Fraction of times ROB stalled by Loads: 43.0441
CPU 0 Percentage of Load stall cycles in Total stall cycles: 1.95599e+08
Issued all: 31144712
Issued LT all: 25021931
rob_not_full_when_issued_lt_all: 18606132
Issued LT one: 20903785
rob_not_full_when_issued_lt_one: 15223970
 Total stall cycles: 57523368
 Total load stall cycles: 112515230901063
Unique Load IPs: 23928
CPU 0 NUM of IPS identified critical: 3
CPU 0 Num of Load IPs stalling ROB: 0
Threshold modification factor: 0
Trouble in retire width: -nan
MaC = Marked as critical.
lt_50_percent_before_Mac: 0
gt_90_percent_before_Mac: 3
gt_75_percent_before_Mac: 0
gt_50_percent_before_Mac: 0
stall_proportion_bin_same_before_after: 0
stall_proportion_bin_lower_before_after: 0
stall_proportion_bin_upper_before_after: 0
average_stall_proportion_before: 0.0272335
average_stall_proportion_after: 0.0292023
Critical_IP_Detector_Accuracy_70: 0
Critical_IP_Detector_Accuracy_80: 0
Critical_IP_Detector_Accuracy_90: 0
Critical_IP_Detector_Coverage_70: 0
Critical_IP_Detector_Coverage_80: 0
Critical_IP_Detector_Coverage_90: 0
stat_90_percent_critical_ip_stalls_freq: 54092
stat_90_percent_non_critical_ip_stalls_freq: 18446744073709497524
AVERAGE_ROB_Occupancy_90_Percent_Critical_IP_Stalls: 66.5921
AVERAGE_ROB_Occupancy_90_Percent_Non_Critical_IP_Stalls: 1.50921e-11
Critical_IP_ROB_Stalls_Bucket_0: 28
Non-critical_IP_ROB_Stalls_Bucket_0: 657958
Critical_IP_ROB_Stalls_Bucket_1: 59
Non-critical_IP_ROB_Stalls_Bucket_1: 665202
Critical_IP_ROB_Stalls_Bucket_2: 15
Non-critical_IP_ROB_Stalls_Bucket_2: 301915
Critical_IP_ROB_Stalls_Bucket_3: 259
Non-critical_IP_ROB_Stalls_Bucket_3: 152512
Critical_IP_ROB_Stalls_Bucket_4: 179
Non-critical_IP_ROB_Stalls_Bucket_4: 128113
Critical_IP_ROB_Stalls_Bucket_5: 320
Non-critical_IP_ROB_Stalls_Bucket_5: 136202
Critical_IP_ROB_Stalls_Bucket_6: 876
Non-critical_IP_ROB_Stalls_Bucket_6: 247047
0 => IPs accounting for >50 percent of stalls, 1 => 55, 2 => 60, 3 => 65 and so on till 90.
percent50: inf num IPs:  1
percent55: inf num IPs: 1
percent60: inf num IPs: 1
percent65: inf num IPs: 1
percent70: inf num IPs: 1
percent75: inf num IPs: 1
percent80: inf num IPs: 1
percent85: inf num IPs: 1
percent90: inf num IPs: 1
Critical_ROB_Stalls_Percent_0_Bucket_0: 14024
Non-critical_ROB_Stalls_Percent_0_Bucket_0: 643962
Critical_ROB_Stalls_Percent_0_Bucket_1: 31705
Non-critical_ROB_Stalls_Percent_0_Bucket_1: 633556
Critical_ROB_Stalls_Percent_0_Bucket_2: 7970
Non-critical_ROB_Stalls_Percent_0_Bucket_2: 293960
Critical_ROB_Stalls_Percent_0_Bucket_3: 345
Non-critical_ROB_Stalls_Percent_0_Bucket_3: 152426
Critical_ROB_Stalls_Percent_0_Bucket_4: 40
Non-critical_ROB_Stalls_Percent_0_Bucket_4: 128252
Critical_ROB_Stalls_Percent_0_Bucket_5: 3
Non-critical_ROB_Stalls_Percent_0_Bucket_5: 136519
Critical_ROB_Stalls_Percent_0_Bucket_6: 5
Non-critical_ROB_Stalls_Percent_0_Bucket_6: 247918
Critical_ROB_Stalls_Percent_1_Bucket_0: 14024
Non-critical_ROB_Stalls_Percent_1_Bucket_0: 643962
Critical_ROB_Stalls_Percent_1_Bucket_1: 31705
Non-critical_ROB_Stalls_Percent_1_Bucket_1: 633556
Critical_ROB_Stalls_Percent_1_Bucket_2: 7970
Non-critical_ROB_Stalls_Percent_1_Bucket_2: 293960
Critical_ROB_Stalls_Percent_1_Bucket_3: 345
Non-critical_ROB_Stalls_Percent_1_Bucket_3: 152426
Critical_ROB_Stalls_Percent_1_Bucket_4: 40
Non-critical_ROB_Stalls_Percent_1_Bucket_4: 128252
Critical_ROB_Stalls_Percent_1_Bucket_5: 3
Non-critical_ROB_Stalls_Percent_1_Bucket_5: 136519
Critical_ROB_Stalls_Percent_1_Bucket_6: 5
Non-critical_ROB_Stalls_Percent_1_Bucket_6: 247918
Critical_ROB_Stalls_Percent_2_Bucket_0: 14024
Non-critical_ROB_Stalls_Percent_2_Bucket_0: 643962
Critical_ROB_Stalls_Percent_2_Bucket_1: 31705
Non-critical_ROB_Stalls_Percent_2_Bucket_1: 633556
Critical_ROB_Stalls_Percent_2_Bucket_2: 7970
Non-critical_ROB_Stalls_Percent_2_Bucket_2: 293960
Critical_ROB_Stalls_Percent_2_Bucket_3: 345
Non-critical_ROB_Stalls_Percent_2_Bucket_3: 152426
Critical_ROB_Stalls_Percent_2_Bucket_4: 40
Non-critical_ROB_Stalls_Percent_2_Bucket_4: 128252
Critical_ROB_Stalls_Percent_2_Bucket_5: 3
Non-critical_ROB_Stalls_Percent_2_Bucket_5: 136519
Critical_ROB_Stalls_Percent_2_Bucket_6: 5
Non-critical_ROB_Stalls_Percent_2_Bucket_6: 247918
Critical_ROB_Stalls_Percent_3_Bucket_0: 14024
Non-critical_ROB_Stalls_Percent_3_Bucket_0: 643962
Critical_ROB_Stalls_Percent_3_Bucket_1: 31705
Non-critical_ROB_Stalls_Percent_3_Bucket_1: 633556
Critical_ROB_Stalls_Percent_3_Bucket_2: 7970
Non-critical_ROB_Stalls_Percent_3_Bucket_2: 293960
Critical_ROB_Stalls_Percent_3_Bucket_3: 345
Non-critical_ROB_Stalls_Percent_3_Bucket_3: 152426
Critical_ROB_Stalls_Percent_3_Bucket_4: 40
Non-critical_ROB_Stalls_Percent_3_Bucket_4: 128252
Critical_ROB_Stalls_Percent_3_Bucket_5: 3
Non-critical_ROB_Stalls_Percent_3_Bucket_5: 136519
Critical_ROB_Stalls_Percent_3_Bucket_6: 5
Non-critical_ROB_Stalls_Percent_3_Bucket_6: 247918
Critical_ROB_Stalls_Percent_4_Bucket_0: 14024
Non-critical_ROB_Stalls_Percent_4_Bucket_0: 643962
Critical_ROB_Stalls_Percent_4_Bucket_1: 31705
Non-critical_ROB_Stalls_Percent_4_Bucket_1: 633556
Critical_ROB_Stalls_Percent_4_Bucket_2: 7970
Non-critical_ROB_Stalls_Percent_4_Bucket_2: 293960
Critical_ROB_Stalls_Percent_4_Bucket_3: 345
Non-critical_ROB_Stalls_Percent_4_Bucket_3: 152426
Critical_ROB_Stalls_Percent_4_Bucket_4: 40
Non-critical_ROB_Stalls_Percent_4_Bucket_4: 128252
Critical_ROB_Stalls_Percent_4_Bucket_5: 3
Non-critical_ROB_Stalls_Percent_4_Bucket_5: 136519
Critical_ROB_Stalls_Percent_4_Bucket_6: 5
Non-critical_ROB_Stalls_Percent_4_Bucket_6: 247918
Critical_ROB_Stalls_Percent_5_Bucket_0: 14024
Non-critical_ROB_Stalls_Percent_5_Bucket_0: 643962
Critical_ROB_Stalls_Percent_5_Bucket_1: 31705
Non-critical_ROB_Stalls_Percent_5_Bucket_1: 633556
Critical_ROB_Stalls_Percent_5_Bucket_2: 7970
Non-critical_ROB_Stalls_Percent_5_Bucket_2: 293960
Critical_ROB_Stalls_Percent_5_Bucket_3: 345
Non-critical_ROB_Stalls_Percent_5_Bucket_3: 152426
Critical_ROB_Stalls_Percent_5_Bucket_4: 40
Non-critical_ROB_Stalls_Percent_5_Bucket_4: 128252
Critical_ROB_Stalls_Percent_5_Bucket_5: 3
Non-critical_ROB_Stalls_Percent_5_Bucket_5: 136519
Critical_ROB_Stalls_Percent_5_Bucket_6: 5
Non-critical_ROB_Stalls_Percent_5_Bucket_6: 247918
Critical_ROB_Stalls_Percent_6_Bucket_0: 14024
Non-critical_ROB_Stalls_Percent_6_Bucket_0: 643962
Critical_ROB_Stalls_Percent_6_Bucket_1: 31705
Non-critical_ROB_Stalls_Percent_6_Bucket_1: 633556
Critical_ROB_Stalls_Percent_6_Bucket_2: 7970
Non-critical_ROB_Stalls_Percent_6_Bucket_2: 293960
Critical_ROB_Stalls_Percent_6_Bucket_3: 345
Non-critical_ROB_Stalls_Percent_6_Bucket_3: 152426
Critical_ROB_Stalls_Percent_6_Bucket_4: 40
Non-critical_ROB_Stalls_Percent_6_Bucket_4: 128252
Critical_ROB_Stalls_Percent_6_Bucket_5: 3
Non-critical_ROB_Stalls_Percent_6_Bucket_5: 136519
Critical_ROB_Stalls_Percent_6_Bucket_6: 5
Non-critical_ROB_Stalls_Percent_6_Bucket_6: 247918
Critical_ROB_Stalls_Percent_7_Bucket_0: 14024
Non-critical_ROB_Stalls_Percent_7_Bucket_0: 643962
Critical_ROB_Stalls_Percent_7_Bucket_1: 31705
Non-critical_ROB_Stalls_Percent_7_Bucket_1: 633556
Critical_ROB_Stalls_Percent_7_Bucket_2: 7970
Non-critical_ROB_Stalls_Percent_7_Bucket_2: 293960
Critical_ROB_Stalls_Percent_7_Bucket_3: 345
Non-critical_ROB_Stalls_Percent_7_Bucket_3: 152426
Critical_ROB_Stalls_Percent_7_Bucket_4: 40
Non-critical_ROB_Stalls_Percent_7_Bucket_4: 128252
Critical_ROB_Stalls_Percent_7_Bucket_5: 3
Non-critical_ROB_Stalls_Percent_7_Bucket_5: 136519
Critical_ROB_Stalls_Percent_7_Bucket_6: 5
Non-critical_ROB_Stalls_Percent_7_Bucket_6: 247918
Critical_ROB_Stalls_Percent_8_Bucket_0: 14024
Non-critical_ROB_Stalls_Percent_8_Bucket_0: 643962
Critical_ROB_Stalls_Percent_8_Bucket_1: 31705
Non-critical_ROB_Stalls_Percent_8_Bucket_1: 633556
Critical_ROB_Stalls_Percent_8_Bucket_2: 7970
Non-critical_ROB_Stalls_Percent_8_Bucket_2: 293960
Critical_ROB_Stalls_Percent_8_Bucket_3: 345
Non-critical_ROB_Stalls_Percent_8_Bucket_3: 152426
Critical_ROB_Stalls_Percent_8_Bucket_4: 40
Non-critical_ROB_Stalls_Percent_8_Bucket_4: 128252
Critical_ROB_Stalls_Percent_8_Bucket_5: 3
Non-critical_ROB_Stalls_Percent_8_Bucket_5: 136519
Critical_ROB_Stalls_Percent_8_Bucket_6: 5
Non-critical_ROB_Stalls_Percent_8_Bucket_6: 247918
Average ROB occupancy Load Stall Begin: 109.064
Average ROB occupancy Load Stall End: 123.108
Min ROB occupancy Load Stall Begin: 1
Max ROB occupancy Load Stall Begin: 352
Min ROB occupancy Load Stall End: 1
Max ROB occupancy Load Stall End: 352
Average ROB occupancy Critical Load Stall Begin: 281.044
Average ROB occupancy Critical Load Stall End: 291.147
Min ROB occupancy Critical Load Stall Begin: 43
Max ROB occupancy Critical Load Stall Begin: 351
Min ROB occupancy Critical Load Stall End: 59
Max ROB occupancy Critical Load Stall End: 352
 ROB Load Stall Begin Bucket Count 0: 899612
 ROB Load Stall End Bucket Count 0: 657986
 ROB Critical Load Stall Begin Bucket Count 0: 1
 ROB Critical Load Stall End Bucket Count 0: 0
 ROB Load Stall Begin Bucket Count 1: 554858
 ROB Load Stall End Bucket Count 1: 665261
 ROB Critical Load Stall Begin Bucket Count 1: 1
 ROB Critical Load Stall End Bucket Count 1: 2
 ROB Load Stall Begin Bucket Count 2: 243917
 ROB Load Stall End Bucket Count 2: 301930
 ROB Critical Load Stall Begin Bucket Count 2: 1
 ROB Critical Load Stall End Bucket Count 2: 1
 ROB Load Stall Begin Bucket Count 3: 132743
 ROB Load Stall End Bucket Count 3: 152771
 ROB Critical Load Stall Begin Bucket Count 3: 10
 ROB Critical Load Stall End Bucket Count 3: 10
 ROB Load Stall Begin Bucket Count 4: 123409
 ROB Load Stall End Bucket Count 4: 128292
 ROB Critical Load Stall Begin Bucket Count 4: 10
 ROB Critical Load Stall End Bucket Count 4: 7
 ROB Load Stall Begin Bucket Count 5: 135554
 ROB Load Stall End Bucket Count 5: 136522
 ROB Critical Load Stall Begin Bucket Count 5: 7
 ROB Critical Load Stall End Bucket Count 5: 10
 ROB Load Stall Begin Bucket Count 6: 200592
 ROB Load Stall End Bucket Count 6: 247923
 ROB Critical Load Stall Begin Bucket Count 6: 38
 ROB Critical Load Stall End Bucket Count 6: 39
PIST Tag Read Accesses: 0
PIST Read Accesses: 0
PIST Tag Write Accesses: 0
PIST Write Accesses: 0
Criticality detector called times: 0
Max global_stall_cycles_count: 0
Threshold Modified: 0 times, factor: 0
Sturdy critical IP cache stats: 
 Unused entries: 0
CIC Tag Read Accesses: 0
CIC Read Accesses: 0
CIC Tag Write Accesses: 0
CIC Write Accesses: 0
Wobbly critical IP cache stats: 
 Unused entries: 3
CIC Tag Read Accesses: 127271710
CIC Read Accesses: 0
CIC Tag Write Accesses: 47073
CIC Write Accesses: 0
ITLB TOTAL     ACCESS:    8057140  HIT:    7924905  MISS:     132235  HIT %:    98.3588  MISS %:    1.64122   MPKI: 2.6447
ITLB LOAD TRANSLATION ACCESS:    7297988  HIT:    7278419  MISS:      19569  HIT %:    99.7319  MISS %:   0.268142   MPKI: 0.39138
ITLB TRANSLATION FROM L1D PREFETCHER ACCESS:     759152  HIT:     646486  MISS:     112666  HIT %:     85.159  MISS %:     14.841   MPKI: 2.25332
ITLB PREFETCH  REQUESTED:          0  ISSUED:          0  USEFUL:      95193  USELESS:      17477
ITLB USEFUL LOAD PREFETCHES:      95193 PREFETCH ISSUED TO LOWER LEVEL:          0  ACCURACY: inf
ITLB TIMELY PREFETCHES:      95193 LATE PREFETCHES: 227 DROPPED PREFETCHES: 926
ITLB PREFETCHES SAME FILL-ORIGIN LEVEL: 0 DIFFERENT FILL-ORIGIN LEVEL: 0
ITLB AVERAGE MISS LATENCY: 76974 cycles
ITLB RQ	ACCESS:   10888473	FORWARD:          0	MERGED:    2820676	TO_CACHE:    8067797

DTLB TOTAL     ACCESS:    9711256  HIT:    9400076  MISS:     311180  HIT %:    96.7957  MISS %:    3.20432   MPKI: 6.2236
DTLB LOAD TRANSLATION ACCESS:    9711256  HIT:    9400076  MISS:     311180  HIT %:    96.7957  MISS %:    3.20432   MPKI: 6.2236
DTLB PREFETCH  REQUESTED:          0  ISSUED:          0  USEFUL:          0  USELESS:          0
DTLB USEFUL LOAD PREFETCHES:          0 PREFETCH ISSUED TO LOWER LEVEL:          0  ACCURACY: -nan
DTLB TIMELY PREFETCHES:          0 LATE PREFETCHES: 0 DROPPED PREFETCHES: 0
DTLB PREFETCHES SAME FILL-ORIGIN LEVEL: 0 DIFFERENT FILL-ORIGIN LEVEL: 0
DTLB AVERAGE MISS LATENCY: 20.2434 cycles
DTLB RQ	ACCESS:   11976007	FORWARD:          0	MERGED:    2250349	TO_CACHE:    9725658

STLB TOTAL     ACCESS:     443415  HIT:     412510  MISS:      30905  HIT %:    93.0302  MISS %:    6.96977   MPKI: 0.6181
STLB LOAD TRANSLATION ACCESS:     330522  HIT:     305026  MISS:      25496  HIT %:    92.2861  MISS %:    7.71386   MPKI: 0.50992
STLB TRANSLATION FROM L1D PREFETCHER ACCESS:     112893  HIT:     107484  MISS:       5409  HIT %:    95.2087  MISS %:    4.79126   MPKI: 0.10818
STLB PREFETCH  REQUESTED:          0  ISSUED:          0  USEFUL:       3059  USELESS:       2385
STLB USEFUL LOAD PREFETCHES:       3059 PREFETCH ISSUED TO LOWER LEVEL:          0  ACCURACY: inf
STLB TIMELY PREFETCHES:       3059 LATE PREFETCHES: 0 DROPPED PREFETCHES: 926
STLB PREFETCHES SAME FILL-ORIGIN LEVEL: 0 DIFFERENT FILL-ORIGIN LEVEL: 0
STLB AVERAGE MISS LATENCY: 130.53 cycles
STLB RQ	ACCESS:     444341	FORWARD:          0	MERGED:          0	TO_CACHE:     444341

STLB Hit, L1D data hit: 0
STLB Hit, L2C data hit: 0
STLB Hit, LLC data hit: 0
STLB Hit, LLC data miss: 0
STLB STLB hints to L2: 0
L1D TOTAL     ACCESS:   11588290  HIT:   11178267  MISS:     410023  HIT %:    96.4617  MISS %:    3.53825   MPKI: 8.20046
L1D LOAD      ACCESS:    6611787  HIT:    6298198  MISS:     313589  HIT %:    95.2571  MISS %:    4.74288   MPKI: 6.27178
L1D RFO       ACCESS:    4976503  HIT:    4880069  MISS:      96434  HIT %:    98.0622  MISS %:    1.93779   MPKI: 1.92868
L1D PREFETCH  REQUESTED:          0  ISSUED:          0  USEFUL:          5  USELESS:         34
L1D USEFUL LOAD PREFETCHES:          5 PREFETCH ISSUED TO LOWER LEVEL:          0  ACCURACY: inf
L1D TIMELY PREFETCHES:          5 LATE PREFETCHES: 0 DROPPED PREFETCHES: 0
L1D PREFETCHES SAME FILL-ORIGIN LEVEL: 0 DIFFERENT FILL-ORIGIN LEVEL: 0
L1D AVERAGE MISS LATENCY: 126.984 cycles
L1D RQ	ACCESS:   10447811	FORWARD:          0	MERGED:    3698928	TO_CACHE:    6668132
L1D WQ	ACCESS:    5417473	FORWARD:      80751	MERGED:     109598	TO_CACHE:    5307875

L1D UNIQUE REGIONS ACCESSED: 0
L1D REGIONS CONFLICTS: 0
L1D Cross Page Prefetch Requests: 0
L1D Same Page Prefetch Requests: 171190
L1D ROI Sum of L1D PQ occupancy: 0
L1D PREFETCHES PUSHED FROM L2C: 0
L1I TOTAL     ACCESS:   10846189  HIT:    9962649  MISS:     883540  HIT %:    91.8539  MISS %:    8.14609   MPKI: 17.6708
L1I LOAD      ACCESS:    9061604  HIT:    8996703  MISS:      64901  HIT %:    99.2838  MISS %:    0.71622   MPKI: 1.29802
L1I PREFETCH  ACCESS:    1784585  HIT:     965946  MISS:     818639  HIT %:    54.1272  MISS %:    45.8728   MPKI: 16.3728
L1I PREFETCH  REQUESTED:    1857788  ISSUED:    1855578  USEFUL:     609829  USELESS:     208868
L1I USEFUL LOAD PREFETCHES:     609829 PREFETCH ISSUED TO LOWER LEVEL:     828309  ACCURACY: 73.6234
L1I TIMELY PREFETCHES:     609829 LATE PREFETCHES: 9674 DROPPED PREFETCHES: 3079
L1I PREFETCHES SAME FILL-ORIGIN LEVEL: 828309 DIFFERENT FILL-ORIGIN LEVEL: 0
L1I AVERAGE MISS LATENCY: 525888 cycles
L1I RQ	ACCESS:   13284742	FORWARD:          0	MERGED:    4213740	TO_CACHE:    9071002
L1I PQ	ACCESS:    1855578	FORWARD:          0	MERGED:      38107	TO_CACHE:    1817471

BTB TOTAL     ACCESS:    3947211  HIT:    3651662  MISS:     295549  HIT %:    92.5125  MISS %:    7.48754   MPKI: 5.91098
BTB BRANCH_DIRECT_JUMP	ACCESS:     347939  HIT:     337009  MISS:      10930
BTB BRANCH_INDIRECT	ACCESS:     148210  HIT:      89092  MISS:      59118
BTB BRANCH_CONDITIONAL	ACCESS:    2238088  HIT:    2191941  MISS:      46147
BTB BRANCH_DIRECT_CALL	ACCESS:     570721  HIT:     551837  MISS:      18884
BTB BRANCH_INDIRECT_CALL	ACCESS:      25133  HIT:      23193  MISS:       1940
BTB BRANCH_RETURN	ACCESS:     617120  HIT:     458590  MISS:     158530
BTB BRANCH_OTHER ACCESS:          0  HIT:          0  MISS:          0

L2C TOTAL     ACCESS:    1795123  HIT:    1306845  MISS:     488278  HIT %:    72.7997  MISS %:    27.2003   MPKI: 9.76556
L2C LOAD      ACCESS:     368813  HIT:     151901  MISS:     216912  HIT %:    41.1865  MISS %:    58.8135   MPKI: 4.33824
L2C DATA LOAD MPKI: 3.90396
L2C INSTRUCTION LOAD MPKI: 0.43428
L2C RFO       ACCESS:      96433  HIT:      16397  MISS:      80036  HIT %:    17.0035  MISS %:    82.9965   MPKI: 1.60072
L2C PREFETCH  ACCESS:    1084066  HIT:     924993  MISS:     159073  HIT %:    85.3263  MISS %:    14.6737   MPKI: 3.18146
L2C DATA PREFETCH MPKI: 0.4625
L2C INSTRUCTION PREFETCH MPKI: 2.71896
L2C WRITEBACK ACCESS:     204309  HIT:     194217  MISS:      10092  HIT %:    95.0604  MISS %:    4.93958   MPKI: 0.20184
L2C LOAD TRANSLATION ACCESS:      33734  HIT:      14885  MISS:      18849  HIT %:    44.1246  MISS %:    55.8754   MPKI: 0.37698
L2C TRANSLATION FROM L1D PREFETCHER ACCESS:       7768  HIT:       4452  MISS:       3316  HIT %:     57.312  MISS %:     42.688   MPKI: 0.06632
L2C PREFETCH  REQUESTED:     613856  ISSUED:     613856  USEFUL:       8659  USELESS:     156129
L2C USEFUL LOAD PREFETCHES:       8659 PREFETCH ISSUED TO LOWER LEVEL:     159145  ACCURACY: 5.44095
L2C TIMELY PREFETCHES:       8659 LATE PREFETCHES: 73 DROPPED PREFETCHES: 0
L2C PREFETCHES SAME FILL-ORIGIN LEVEL: 26735 DIFFERENT FILL-ORIGIN LEVEL: 0
L2C AVERAGE MISS LATENCY: 116.026 cycles
L2C RQ	ACCESS:     506751	FORWARD:          0	MERGED:          0	TO_CACHE:     506748
L2C WQ	ACCESS:     204309	FORWARD:          3	MERGED:          0	TO_CACHE:     204309
L2C PQ	ACCESS:    1442165	FORWARD:          0	MERGED:     354322	TO_CACHE:    1087843

L2C Instructions Evicting Data 97908
L2C Translations Evicting Data 14047
L2C Data Evicting Data 188694
L2C Instructions Evicting Instructions 53121
L2C Translations Evicting Instructions 7087
L2C Data Evicting Instructions 95578
L2C Instructions Evicting Translations 6633
L2C Translations Evicting Translations 1031
L2C Data Evicting Translations 14087
L2C Dense regions hint from L2: 0
PSCL5 TOTAL     ACCESS:      31831  HIT:      31831  MISS:          0  HIT %:        100  MISS %:          0   MPKI: 0
PSCL5 LOAD TRANSLATION ACCESS:      25496  HIT:      25496  MISS:          0  HIT %:        100  MISS %:          0   MPKI: 0
PSCL5 TRANSLATION FROM L1D PREFETCHER ACCESS:       6335  HIT:       6335  MISS:          0  HIT %:        100  MISS %:          0   MPKI: 0
PSCL5 PREFETCH  REQUESTED:          0  ISSUED:          0  USEFUL:          0  USELESS:          0
PSCL5 USEFUL LOAD PREFETCHES:          0 PREFETCH ISSUED TO LOWER LEVEL:          0  ACCURACY: -nan
PSCL5 TIMELY PREFETCHES:          0 LATE PREFETCHES: 0 DROPPED PREFETCHES: 0
PSCL5 PREFETCHES SAME FILL-ORIGIN LEVEL: 0 DIFFERENT FILL-ORIGIN LEVEL: 0

PSCL4 TOTAL     ACCESS:      31017  HIT:      30927  MISS:         90  HIT %:    99.7098  MISS %:   0.290163   MPKI: 0.0018
PSCL4 LOAD TRANSLATION ACCESS:      25016  HIT:      24926  MISS:         90  HIT %:    99.6402  MISS %:    0.35977   MPKI: 0.0018
PSCL4 TRANSLATION FROM L1D PREFETCHER ACCESS:       6001  HIT:       6001  MISS:          0  HIT %:        100  MISS %:          0   MPKI: 0
PSCL4 PREFETCH  REQUESTED:          0  ISSUED:          0  USEFUL:          0  USELESS:          0
PSCL4 USEFUL LOAD PREFETCHES:          0 PREFETCH ISSUED TO LOWER LEVEL:          0  ACCURACY: -nan
PSCL4 TIMELY PREFETCHES:          0 LATE PREFETCHES: 0 DROPPED PREFETCHES: 0
PSCL4 PREFETCHES SAME FILL-ORIGIN LEVEL: 0 DIFFERENT FILL-ORIGIN LEVEL: 0

PSCL3 TOTAL     ACCESS:      31454  HIT:      31364  MISS:         90  HIT %:    99.7139  MISS %:   0.286132   MPKI: 0.0018
PSCL3 LOAD TRANSLATION ACCESS:      25453  HIT:      25363  MISS:         90  HIT %:    99.6464  MISS %:   0.353593   MPKI: 0.0018
PSCL3 TRANSLATION FROM L1D PREFETCHER ACCESS:       6001  HIT:       6001  MISS:          0  HIT %:        100  MISS %:          0   MPKI: 0
PSCL3 PREFETCH  REQUESTED:          0  ISSUED:          0  USEFUL:          0  USELESS:          0
PSCL3 USEFUL LOAD PREFETCHES:          0 PREFETCH ISSUED TO LOWER LEVEL:          0  ACCURACY: -nan
PSCL3 TIMELY PREFETCHES:          0 LATE PREFETCHES: 0 DROPPED PREFETCHES: 0
PSCL3 PREFETCHES SAME FILL-ORIGIN LEVEL: 0 DIFFERENT FILL-ORIGIN LEVEL: 0

PSCL2 TOTAL     ACCESS:      31389  HIT:      22555  MISS:       8834  HIT %:    71.8564  MISS %:    28.1436   MPKI: 0.17668
PSCL2 LOAD TRANSLATION ACCESS:      26219  HIT:      17385  MISS:       8834  HIT %:    66.3069  MISS %:    33.6931   MPKI: 0.17668
PSCL2 TRANSLATION FROM L1D PREFETCHER ACCESS:       5170  HIT:       5170  MISS:          0  HIT %:        100  MISS %:          0   MPKI: 0
PSCL2 PREFETCH  REQUESTED:          0  ISSUED:          0  USEFUL:          0  USELESS:          0
PSCL2 USEFUL LOAD PREFETCHES:          0 PREFETCH ISSUED TO LOWER LEVEL:          0  ACCURACY: -nan
PSCL2 TIMELY PREFETCHES:          0 LATE PREFETCHES: 0 DROPPED PREFETCHES: 0
PSCL2 PREFETCHES SAME FILL-ORIGIN LEVEL: 0 DIFFERENT FILL-ORIGIN LEVEL: 0

LLC TOTAL     ACCESS:     641430  HIT:     409061  MISS:     232369  HIT %:    63.7733  MISS %:    36.2267   MPKI: 4.64738
LLC LOAD      ACCESS:     216839  HIT:      89937  MISS:     126902  HIT %:    41.4764  MISS %:    58.5236   MPKI: 2.53804
LLC RFO       ACCESS:      80035  HIT:       6190  MISS:      73845  HIT %:    7.73412  MISS %:    92.2659   MPKI: 1.4769
LLC PREFETCH  ACCESS:     159145  HIT:     143257  MISS:      15888  HIT %:    90.0167  MISS %:    9.98335   MPKI: 0.31776
LLC WRITEBACK ACCESS:     163246  HIT:     155617  MISS:       7629  HIT %:    95.3267  MISS %:    4.67332   MPKI: 0.15258
LLC LOAD TRANSLATION ACCESS:      18849  HIT:      11060  MISS:       7789  HIT %:    58.6769  MISS %:    41.3231   MPKI: 0.15578
LLC TRANSLATION FROM L1D PREFETCHER ACCESS:       3316  HIT:       3000  MISS:        316  HIT %:    90.4704  MISS %:    9.52955   MPKI: 0.00632
LLC PREFETCH  REQUESTED:          0  ISSUED:          0  USEFUL:       1148  USELESS:      19061
LLC USEFUL LOAD PREFETCHES:       1148 PREFETCH ISSUED TO LOWER LEVEL:      15888  ACCURACY: 7.22558
LLC TIMELY PREFETCHES:       1148 LATE PREFETCHES: 0 DROPPED PREFETCHES: 0
LLC PREFETCHES SAME FILL-ORIGIN LEVEL: 0 DIFFERENT FILL-ORIGIN LEVEL: 0
LLC AVERAGE MISS LATENCY: 181.123 cycles
LLC RQ	ACCESS:     319040	FORWARD:          0	MERGED:          0	TO_CACHE:     319039
LLC WQ	ACCESS:     163246	FORWARD:          1	MERGED:          0	TO_CACHE:     163246
LLC PQ	ACCESS:     159145	FORWARD:          0	MERGED:          0	TO_CACHE:     159145

LLC Dense regions hint to LLC: 0

RAW hits: 1284356
Loads Generated: 11732167
Loads sent to L1D: 10447811
Stores Generated: 5417460
Stores sent to L1D: 5417473
Major fault: 0 Minor fault: 17223
Allocated PAGES: 17223
I-Shadow cache 408 bytes
Touched + WorthPF tables 6144 bytes 
MMA filter 174 bytes 
FNL filter 272 bytes 
TOTAL PREFETCHER STORAGE SIZE: 25174 bytes
CPU 0 L1I next line prefetcher final stats

stream: 
stream:times selected: 222736
stream:pref_filled: 32059
stream:pref_useful: 16588
stream:pref_late: 912
stream:misses: 2922
stream:misses_by_poll: 0

CS: 
CS:times selected: 36999
CS:pref_filled: 23214
CS:pref_useful: 21357
CS:pref_late: 78
CS:misses: 870
CS:misses_by_poll: 0

CPLX: 
CPLX:times selected: 184843
CPLX:pref_filled: 13713
CPLX:pref_useful: 5513
CPLX:pref_late: 719
CPLX:misses: 15201
CPLX:misses_by_poll: 0

NL_L1: 
NL:times selected: 929
NL:pref_filled: 283
NL:pref_useful: 36
NL:pref_late: 1
NL:misses: 76
NL:misses_by_poll: 0

total selections: 445507
total_filled: 0
total_useful: 5
total_late: 1820
total_polluted: 0
total_misses_after_warmup: 0
conflicts: 2
Degree Incremented Times: 19268
Degree Decremented Times: 38795

L1 IP Table Write Accesses: 564
L1 IP Table Read Accesses: 562
L1 RST Write Accesses: 0
L1 RST Read Accesses: 0
L1 CSPT Write Accesses: 0
L1 CSPT Read Accesses: 0
L1 RR Filter Tag Write Accesses: 0
L1 RR Filter Tag Read Accesses: 0
L1 IP Table Tag Write Accesses: 723
L1 IP Table Tag Read Accesses: 723
L1 RST Tag Write Accesses: 0
L1 RST Tag Read Accesses: 0
L1 RR Filter Write Accesses: 0
L1 RR Filter Read Accesses: 0
test: 51743
L2 IP Table Read Accesses: 624711
L2 IP Table Write Accesses: 1248675
L2 IP Table Tag Read Accesses: 624462
L2 IP Table Tag Write Accesses: 624462

DRAM Statistics
 CHANNEL 0
 RQ ROW_BUFFER_HIT:      57040  ROW_BUFFER_MISS:     167697
 DBUS_CONGESTED:         56
 WQ ROW_BUFFER_HIT:      26793  ROW_BUFFER_MISS:     126573  FULL:          0

 AVG_CONGESTED_CYCLE: 5
 All warmup complete: 2
Channel 0 Bank busy for read cycles: 0
Channel 0 Bank busy for write cycles: 0
Channel 0
Rank 0
0banks busy for read cycles: 37293204
0banks busy for write cycles: 63676
1banks busy for read cycles: 14516665
1banks busy for write cycles: 8840896
2banks busy for read cycles: 3134755
2banks busy for write cycles: 2931800
3banks busy for read cycles: 395469
3banks busy for write cycles: 690778
4banks busy for read cycles: 158471
4banks busy for write cycles: 285948
5banks busy for read cycles: 106851
5banks busy for write cycles: 159698
6banks busy for read cycles: 79381
6banks busy for write cycles: 111309
7banks busy for read cycles: 90458
7banks busy for write cycles: 149745
8banks busy for read cycles: 482159
8banks busy for write cycles: 850260

CPU 0 Branch Prediction Accuracy: 99.5889% MPKI: 0.70108 Average ROB Occupancy at Mispredict: 102.268
Branch types
NOT_BRANCH: 41473363 82.9467%
BRANCH_DIRECT_JUMP: 347939 0.695878%
BRANCH_INDIRECT: 148210 0.29642%
BRANCH_CONDITIONAL: 6817243 13.6345%
BRANCH_DIRECT_CALL: 570721 1.14144%
BRANCH_INDIRECT_CALL: 25133 0.050266%
BRANCH_RETURN: 617120 1.23424%
BRANCH_OTHER: 0 0%

DRAM PAGES: 1048576
Allocated PAGES: 17223
