Initialize SIGNATURE TABLE
ST_SET: 1
ST_WAY: 256
ST_TAG_BIT: 16
ST_TAG_MASK: ffff

Initialize PATTERN TABLE
PT_SET: 512
PT_WAY: 4
SIG_DELTA_BIT: 7
C_SIG_BIT: 4
C_DELTA_BIT: 4

Initialize PREFETCH FILTER
FILTER_SET: 1024

Initialize PERCEPTRON
PERC_ENTRIES: 4096
PERC_FEATURES: 9

*** ChampSim Multicore Out-of-Order Simulator ***

Warmup Instructions: 50000000
Simulation Instructions: 50000000
Number of CPUs: 1
LLC sets: 2048
LLC ways: 16
Off-chip DRAM Size: 4096 MB Channels: 1 Width: 64-bit Data Rate: 6400 MT/s
CPU 0 runs ../IPC-traces//server_024.champsimtrace.xz
.xz
NUM_OF_IPS_IN_CRITICAL_IP_TRAINING: 64
NUM_OF_CRITICAL_IP_TRAINING_TABLE_WAYS: 2
NUM_OF_CRITICAL_IP_TRAINING_TABLE_SETS: 32
WOBBLY_CRITICAL_IP_CACHE_SETS: 32
WOBBLY_CRITICAL_IP_CACHE_WAYS: 4
BTB has LRU replacement policy
ITLB has LRU replacement policy
DTLB has LRU replacement policy
STLB has LRU replacement policy
CPU 0 L1I next line prefetcher
L1I has LRU replacement policy
L1D has LRU replacement policy
Initialize SRRIP state for L2C
Initialize DRRIP state for LLC
Heartbeat CPU 0 instructions: 10000000 cycles: 2874476 heartbeat IPC: 3.47889 cumulative IPC: 3.47889 (Simulation time: 0 hr 3 min 35 sec) 
Heartbeat CPU 0 instructions: 20000002 cycles: 5742222 heartbeat IPC: 3.48706 cumulative IPC: 3.48297 (Simulation time: 0 hr 6 min 29 sec) 
Heartbeat CPU 0 instructions: 30000002 cycles: 8612103 heartbeat IPC: 3.48447 cumulative IPC: 3.48347 (Simulation time: 0 hr 9 min 16 sec) 
Heartbeat CPU 0 instructions: 40000000 cycles: 11482188 heartbeat IPC: 3.48422 cumulative IPC: 3.48366 (Simulation time: 0 hr 11 min 36 sec) 
Heartbeat CPU 0 instructions: 50000001 cycles: 14348741 heartbeat IPC: 3.48851 cumulative IPC: 3.48463 (Simulation time: 0 hr 13 min 49 sec) 

Warmup complete CPU 0 instructions: 50000001 cycles: 14348741 (Simulation time: 0 hr 13 min 49 sec) 

% increase in all ip prefetch 395.691
% increase in all ip prefetch 3.47982
Heartbeat CPU 0 instructions: 60000003 cycles: 30197242 heartbeat IPC: 0.630975 cumulative IPC: 0.630975 (Simulation time: 0 hr 16 min 23 sec) 
Heartbeat CPU 0 instructions: 70000000 cycles: 46049102 heartbeat IPC: 0.630841 cumulative IPC: 0.630908 (Simulation time: 0 hr 18 min 52 sec) 
*** Reached end of trace for Core: 0 Repeating trace: ../IPC-traces//server_024.champsimtrace.xz
Heartbeat CPU 0 instructions: 80000003 cycles: 61810001 heartbeat IPC: 0.634482 cumulative IPC: 0.632095 (Simulation time: 0 hr 21 min 22 sec) 
Heartbeat CPU 0 instructions: 90000003 cycles: 77626065 heartbeat IPC: 0.632269 cumulative IPC: 0.632138 (Simulation time: 0 hr 23 min 51 sec) 
Heartbeat CPU 0 instructions: 100000002 cycles: 93468746 heartbeat IPC: 0.631206 cumulative IPC: 0.631951 (Simulation time: 0 hr 26 min 9 sec) 
Finished CPU 0 instructions: 50000001 cycles: 79120005 cumulative IPC: 0.631951 (Simulation time: 0 hr 26 min 9 sec) 

ChampSim completed all CPUs

Region of Interest Statistics

CPU 0 cumulative IPC: 0.631951 instructions: 50000001 cycles: 79120005

CPU 0 Average Load ROB stall cycles: 1.97216e+07
CPU 0 Fraction of times ROB stalled by Loads: 36.5882
CPU 0 Percentage of Load stall cycles in Total stall cycles: 2.76777e+08
Issued all: 27846640
Issued LT all: 22010877
rob_not_full_when_issued_lt_all: 21510449
Issued LT one: 17028749
rob_not_full_when_issued_lt_one: 16593126
 Total stall cycles: 65955112
 Total load stall cycles: 182548482177312
CPU 0 NUM of IPS identified critical: 0
CPU 0 Num of Load IPs stalling ROB: 12174
Threshold modification factor: -1
Max PIST entries: 64
Min PIST entries: 0
Avg PIST entries: 32
Trouble in retire width: 0.895641
MaC = Marked as critical.
lt_50_percent_before_Mac: 0
gt_90_percent_before_Mac: 0
gt_75_percent_before_Mac: 0
gt_50_percent_before_Mac: 0
stall_proportion_bin_same_before_after: 0
stall_proportion_bin_lower_before_after: 0
stall_proportion_bin_upper_before_after: 0
average_stall_proportion_before: -nan
average_stall_proportion_after: -nan
Critical IP stalls, total frequency: 0
Non-critical IP stalls, total frequency: 3386706
Total Freq all stalling IPs: 3386706
stat_90_percent_critical_ip_stalls_freq: 3048050
stat_90_percent_non_critical_ip_stalls_freq: 338656
Critical_IP_ROB_Stalls_Bucket_0: 0
Non-critical_IP_ROB_Stalls_Bucket_0: 2304522
Critical_IP_ROB_Stalls_Bucket_1: 0
Non-critical_IP_ROB_Stalls_Bucket_1: 720592
Critical_IP_ROB_Stalls_Bucket_2: 0
Non-critical_IP_ROB_Stalls_Bucket_2: 245974
Critical_IP_ROB_Stalls_Bucket_3: 0
Non-critical_IP_ROB_Stalls_Bucket_3: 59252
Critical_IP_ROB_Stalls_Bucket_4: 0
Non-critical_IP_ROB_Stalls_Bucket_4: 21627
Critical_IP_ROB_Stalls_Bucket_5: 0
Non-critical_IP_ROB_Stalls_Bucket_5: 10732
Critical_IP_ROB_Stalls_Bucket_6: 0
Non-critical_IP_ROB_Stalls_Bucket_6: 24007
0 => IPs accounting for >50 percent of stalls, 1 => 55, 2 => 60, 3 => 65 and so on till 90.
percent50: 50.0088 num IPs:  432
percent55: 55.0207 num IPs: 614
percent60: 60.0152 num IPs: 860
percent65: 65.0128 num IPs: 1118
percent70: 70.0108 num IPs: 1425
percent75: 75.0065 num IPs: 1807
percent80: 80.0044 num IPs: 2290
percent85: 85.0012 num IPs: 2794
percent90: 90.001 num IPs: 3345
Critical_ROB_Stalls_Percent_0_Bucket_0: 903330
Non-critical_ROB_Stalls_Percent_0_Bucket_0: 1401192
Critical_ROB_Stalls_Percent_0_Bucket_1: 490100
Non-critical_ROB_Stalls_Percent_0_Bucket_1: 230492
Critical_ROB_Stalls_Percent_0_Bucket_2: 198374
Non-critical_ROB_Stalls_Percent_0_Bucket_2: 47600
Critical_ROB_Stalls_Percent_0_Bucket_3: 51401
Non-critical_ROB_Stalls_Percent_0_Bucket_3: 7851
Critical_ROB_Stalls_Percent_0_Bucket_4: 18322
Non-critical_ROB_Stalls_Percent_0_Bucket_4: 3305
Critical_ROB_Stalls_Percent_0_Bucket_5: 9346
Non-critical_ROB_Stalls_Percent_0_Bucket_5: 1386
Critical_ROB_Stalls_Percent_0_Bucket_6: 22778
Non-critical_ROB_Stalls_Percent_0_Bucket_6: 1229
Critical_ROB_Stalls_Percent_1_Bucket_0: 1026945
Non-critical_ROB_Stalls_Percent_1_Bucket_0: 1277577
Critical_ROB_Stalls_Percent_1_Bucket_1: 525193
Non-critical_ROB_Stalls_Percent_1_Bucket_1: 195399
Critical_ROB_Stalls_Percent_1_Bucket_2: 206487
Non-critical_ROB_Stalls_Percent_1_Bucket_2: 39487
Critical_ROB_Stalls_Percent_1_Bucket_3: 53456
Non-critical_ROB_Stalls_Percent_1_Bucket_3: 5796
Critical_ROB_Stalls_Percent_1_Bucket_4: 19081
Non-critical_ROB_Stalls_Percent_1_Bucket_4: 2546
Critical_ROB_Stalls_Percent_1_Bucket_5: 9408
Non-critical_ROB_Stalls_Percent_1_Bucket_5: 1324
Critical_ROB_Stalls_Percent_1_Bucket_6: 22820
Non-critical_ROB_Stalls_Percent_1_Bucket_6: 1187
Critical_ROB_Stalls_Percent_2_Bucket_0: 1156827
Non-critical_ROB_Stalls_Percent_2_Bucket_0: 1147695
Critical_ROB_Stalls_Percent_2_Bucket_1: 557460
Non-critical_ROB_Stalls_Percent_2_Bucket_1: 163132
Critical_ROB_Stalls_Percent_2_Bucket_2: 212821
Non-critical_ROB_Stalls_Percent_2_Bucket_2: 33153
Critical_ROB_Stalls_Percent_2_Bucket_3: 53954
Non-critical_ROB_Stalls_Percent_2_Bucket_3: 5298
Critical_ROB_Stalls_Percent_2_Bucket_4: 19209
Non-critical_ROB_Stalls_Percent_2_Bucket_4: 2418
Critical_ROB_Stalls_Percent_2_Bucket_5: 9430
Non-critical_ROB_Stalls_Percent_2_Bucket_5: 1302
Critical_ROB_Stalls_Percent_2_Bucket_6: 22831
Non-critical_ROB_Stalls_Percent_2_Bucket_6: 1176
Critical_ROB_Stalls_Percent_3_Bucket_0: 1288323
Non-critical_ROB_Stalls_Percent_3_Bucket_0: 1016199
Critical_ROB_Stalls_Percent_3_Bucket_1: 587479
Non-critical_ROB_Stalls_Percent_3_Bucket_1: 133113
Critical_ROB_Stalls_Percent_3_Bucket_2: 219937
Non-critical_ROB_Stalls_Percent_3_Bucket_2: 26037
Critical_ROB_Stalls_Percent_3_Bucket_3: 54463
Non-critical_ROB_Stalls_Percent_3_Bucket_3: 4789
Critical_ROB_Stalls_Percent_3_Bucket_4: 19273
Non-critical_ROB_Stalls_Percent_3_Bucket_4: 2354
Critical_ROB_Stalls_Percent_3_Bucket_5: 9468
Non-critical_ROB_Stalls_Percent_3_Bucket_5: 1264
Critical_ROB_Stalls_Percent_3_Bucket_6: 22842
Non-critical_ROB_Stalls_Percent_3_Bucket_6: 1165
Critical_ROB_Stalls_Percent_4_Bucket_0: 1423586
Non-critical_ROB_Stalls_Percent_4_Bucket_0: 880936
Critical_ROB_Stalls_Percent_4_Bucket_1: 614184
Non-critical_ROB_Stalls_Percent_4_Bucket_1: 106408
Critical_ROB_Stalls_Percent_4_Bucket_2: 226587
Non-critical_ROB_Stalls_Percent_4_Bucket_2: 19387
Critical_ROB_Stalls_Percent_4_Bucket_3: 54992
Non-critical_ROB_Stalls_Percent_4_Bucket_3: 4260
Critical_ROB_Stalls_Percent_4_Bucket_4: 19321
Non-critical_ROB_Stalls_Percent_4_Bucket_4: 2306
Critical_ROB_Stalls_Percent_4_Bucket_5: 9514
Non-critical_ROB_Stalls_Percent_4_Bucket_5: 1218
Critical_ROB_Stalls_Percent_4_Bucket_6: 22868
Non-critical_ROB_Stalls_Percent_4_Bucket_6: 1139
Critical_ROB_Stalls_Percent_5_Bucket_0: 1564566
Non-critical_ROB_Stalls_Percent_5_Bucket_0: 739956
Critical_ROB_Stalls_Percent_5_Bucket_1: 636323
Non-critical_ROB_Stalls_Percent_5_Bucket_1: 84269
Critical_ROB_Stalls_Percent_5_Bucket_2: 230752
Non-critical_ROB_Stalls_Percent_5_Bucket_2: 15222
Critical_ROB_Stalls_Percent_5_Bucket_3: 56336
Non-critical_ROB_Stalls_Percent_5_Bucket_3: 2916
Critical_ROB_Stalls_Percent_5_Bucket_4: 19636
Non-critical_ROB_Stalls_Percent_5_Bucket_4: 1991
Critical_ROB_Stalls_Percent_5_Bucket_5: 9611
Non-critical_ROB_Stalls_Percent_5_Bucket_5: 1121
Critical_ROB_Stalls_Percent_5_Bucket_6: 23022
Non-critical_ROB_Stalls_Percent_5_Bucket_6: 985
Critical_ROB_Stalls_Percent_6_Bucket_0: 1710419
Non-critical_ROB_Stalls_Percent_6_Bucket_0: 594103
Critical_ROB_Stalls_Percent_6_Bucket_1: 656155
Non-critical_ROB_Stalls_Percent_6_Bucket_1: 64437
Critical_ROB_Stalls_Percent_6_Bucket_2: 233174
Non-critical_ROB_Stalls_Percent_6_Bucket_2: 12800
Critical_ROB_Stalls_Percent_6_Bucket_3: 57000
Non-critical_ROB_Stalls_Percent_6_Bucket_3: 2252
Critical_ROB_Stalls_Percent_6_Bucket_4: 19981
Non-critical_ROB_Stalls_Percent_6_Bucket_4: 1646
Critical_ROB_Stalls_Percent_6_Bucket_5: 9666
Non-critical_ROB_Stalls_Percent_6_Bucket_5: 1066
Critical_ROB_Stalls_Percent_6_Bucket_6: 23089
Non-critical_ROB_Stalls_Percent_6_Bucket_6: 918
Critical_ROB_Stalls_Percent_7_Bucket_0: 1863067
Non-critical_ROB_Stalls_Percent_7_Bucket_0: 441455
Critical_ROB_Stalls_Percent_7_Bucket_1: 669913
Non-critical_ROB_Stalls_Percent_7_Bucket_1: 50679
Critical_ROB_Stalls_Percent_7_Bucket_2: 234791
Non-critical_ROB_Stalls_Percent_7_Bucket_2: 11183
Critical_ROB_Stalls_Percent_7_Bucket_3: 57364
Non-critical_ROB_Stalls_Percent_7_Bucket_3: 1888
Critical_ROB_Stalls_Percent_7_Bucket_4: 20628
Non-critical_ROB_Stalls_Percent_7_Bucket_4: 999
Critical_ROB_Stalls_Percent_7_Bucket_5: 9842
Non-critical_ROB_Stalls_Percent_7_Bucket_5: 890
Critical_ROB_Stalls_Percent_7_Bucket_6: 23109
Non-critical_ROB_Stalls_Percent_7_Bucket_6: 898
Critical_ROB_Stalls_Percent_8_Bucket_0: 2008505
Non-critical_ROB_Stalls_Percent_8_Bucket_0: 296017
Critical_ROB_Stalls_Percent_8_Bucket_1: 687458
Non-critical_ROB_Stalls_Percent_8_Bucket_1: 33134
Critical_ROB_Stalls_Percent_8_Bucket_2: 239745
Non-critical_ROB_Stalls_Percent_8_Bucket_2: 6229
Critical_ROB_Stalls_Percent_8_Bucket_3: 57559
Non-critical_ROB_Stalls_Percent_8_Bucket_3: 1693
Critical_ROB_Stalls_Percent_8_Bucket_4: 20857
Non-critical_ROB_Stalls_Percent_8_Bucket_4: 770
Critical_ROB_Stalls_Percent_8_Bucket_5: 10255
Non-critical_ROB_Stalls_Percent_8_Bucket_5: 477
Critical_ROB_Stalls_Percent_8_Bucket_6: 23671
Non-critical_ROB_Stalls_Percent_8_Bucket_6: 336
Average ROB occupancy Load Stall Begin: 39.4548
Average ROB occupancy Load Stall End: 47.7582
Min ROB occupancy Load Stall Begin: 1
Max ROB occupancy Load Stall Begin: 352
Min ROB occupancy Load Stall End: 1
Max ROB occupancy Load Stall End: 352
Average ROB occupancy Critical Load Stall Begin: -nan
Average ROB occupancy Critical Load Stall End: -nan
Min ROB occupancy Critical Load Stall Begin: 400
Max ROB occupancy Critical Load Stall Begin: 0
Min ROB occupancy Critical Load Stall End: 400
Max ROB occupancy Critical Load Stall End: 0
 ROB Load Stall Begin Bucket Count 0: 2542927
 ROB Load Stall End Bucket Count 0: 2304522
 ROB Critical Load Stall Begin Bucket Count 0: 0
 ROB Critical Load Stall End Bucket Count 0: 0
 ROB Load Stall Begin Bucket Count 1: 569042
 ROB Load Stall End Bucket Count 1: 720592
 ROB Critical Load Stall Begin Bucket Count 1: 0
 ROB Critical Load Stall End Bucket Count 1: 0
 ROB Load Stall Begin Bucket Count 2: 181710
 ROB Load Stall End Bucket Count 2: 245974
 ROB Critical Load Stall Begin Bucket Count 2: 0
 ROB Critical Load Stall End Bucket Count 2: 0
 ROB Load Stall Begin Bucket Count 3: 43028
 ROB Load Stall End Bucket Count 3: 59252
 ROB Critical Load Stall Begin Bucket Count 3: 0
 ROB Critical Load Stall End Bucket Count 3: 0
 ROB Load Stall Begin Bucket Count 4: 17530
 ROB Load Stall End Bucket Count 4: 21627
 ROB Critical Load Stall Begin Bucket Count 4: 0
 ROB Critical Load Stall End Bucket Count 4: 0
 ROB Load Stall Begin Bucket Count 5: 9623
 ROB Load Stall End Bucket Count 5: 10732
 ROB Critical Load Stall Begin Bucket Count 5: 0
 ROB Critical Load Stall End Bucket Count 5: 0
 ROB Load Stall Begin Bucket Count 6: 22846
 ROB Load Stall End Bucket Count 6: 24007
 ROB Critical Load Stall Begin Bucket Count 6: 0
 ROB Critical Load Stall End Bucket Count 6: 0
PIST Tag Read Accesses: 2367642
PIST Read Accesses: 1183821
PIST Tag Write Accesses: 2367642
PIST Write Accesses: 1183821
Criticality detector called times: 3229497
Max global_stall_cycles_count: 1996489
Threshold Modified: 1 times, factor: -1
Sturdy critical IP cache stats: 
 Unused entries: 0
CIC Tag Read Accesses: 0
CIC Read Accesses: 0
CIC Tag Write Accesses: 0
CIC Write Accesses: 0
Wobbly critical IP cache stats: 
 Unused entries: 125
CIC Tag Read Accesses: 84265930
CIC Read Accesses: 0
CIC Tag Write Accesses: 3
CIC Write Accesses: 0
ITLB TOTAL     ACCESS:    9901111  HIT:    9279314  MISS:     621797  HIT %:    93.7199  MISS %:    6.28007   MPKI: 12.4359
ITLB LOAD TRANSLATION ACCESS:    8069297  HIT:    7984336  MISS:      84961  HIT %:    98.9471  MISS %:    1.05289   MPKI: 1.69922
ITLB TRANSLATION FROM L1D PREFETCHER ACCESS:    1831814  HIT:    1294978  MISS:     536836  HIT %:    70.6937  MISS %:    29.3063   MPKI: 10.7367
ITLB PREFETCH  REQUESTED:          0  ISSUED:          0  USEFUL:     419038  USELESS:     117800
ITLB USEFUL LOAD PREFETCHES:     419038 PREFETCH ISSUED TO LOWER LEVEL:          0  ACCURACY: inf
ITLB TIMELY PREFETCHES:     419038 LATE PREFETCHES: 247 DROPPED PREFETCHES: 3319
ITLB PREFETCHES SAME FILL-ORIGIN LEVEL: 0 DIFFERENT FILL-ORIGIN LEVEL: 0
ITLB AVERAGE MISS LATENCY: 20044.4 cycles
ITLB RQ	ACCESS:   14552293	FORWARD:          0	MERGED:    4610538	TO_CACHE:    9941755

DTLB TOTAL     ACCESS:   11319731  HIT:   10855600  MISS:     464131  HIT %:    95.8998  MISS %:    4.10019   MPKI: 9.28262
DTLB LOAD TRANSLATION ACCESS:   11319731  HIT:   10855600  MISS:     464131  HIT %:    95.8998  MISS %:    4.10019   MPKI: 9.28262
DTLB PREFETCH  REQUESTED:          0  ISSUED:          0  USEFUL:          0  USELESS:          0
DTLB USEFUL LOAD PREFETCHES:          0 PREFETCH ISSUED TO LOWER LEVEL:          0  ACCURACY: -nan
DTLB TIMELY PREFETCHES:          0 LATE PREFETCHES: 0 DROPPED PREFETCHES: 0
DTLB PREFETCHES SAME FILL-ORIGIN LEVEL: 0 DIFFERENT FILL-ORIGIN LEVEL: 0
DTLB AVERAGE MISS LATENCY: 9.40153 cycles
DTLB RQ	ACCESS:   14768724	FORWARD:          0	MERGED:    3422060	TO_CACHE:   11346664

STLB TOTAL     ACCESS:    1085928  HIT:    1082935  MISS:       2993  HIT %:    99.7244  MISS %:   0.275617   MPKI: 0.05986
STLB LOAD TRANSLATION ACCESS:     548845  HIT:     546097  MISS:       2748  HIT %:    99.4993  MISS %:   0.500688   MPKI: 0.05496
STLB TRANSLATION FROM L1D PREFETCHER ACCESS:     537083  HIT:     536838  MISS:        245  HIT %:    99.9544  MISS %:  0.0456168   MPKI: 0.0049
STLB PREFETCH  REQUESTED:          0  ISSUED:          0  USEFUL:        188  USELESS:         55
STLB USEFUL LOAD PREFETCHES:        188 PREFETCH ISSUED TO LOWER LEVEL:          0  ACCURACY: inf
STLB TIMELY PREFETCHES:        188 LATE PREFETCHES: 0 DROPPED PREFETCHES: 3319
STLB PREFETCHES SAME FILL-ORIGIN LEVEL: 0 DIFFERENT FILL-ORIGIN LEVEL: 0
STLB AVERAGE MISS LATENCY: 67.0334 cycles
STLB RQ	ACCESS:    1089247	FORWARD:          0	MERGED:          0	TO_CACHE:    1089247

STLB Hit, L1D data hit: 0
STLB Hit, L2C data hit: 0
STLB Hit, LLC data hit: 0
STLB Hit, LLC data miss: 0
STLB STLB hints to L2: 0
L1D TOTAL     ACCESS:   14269484  HIT:   13279686  MISS:     989798  HIT %:    93.0635  MISS %:    6.93647   MPKI: 19.796
L1D LOAD      ACCESS:    8024814  HIT:    7315217  MISS:     709597  HIT %:    91.1575  MISS %:    8.84254   MPKI: 14.1919
L1D RFO       ACCESS:    6244670  HIT:    5964469  MISS:     280201  HIT %:     95.513  MISS %:    4.48704   MPKI: 5.60402
L1D PREFETCH  REQUESTED:          0  ISSUED:          0  USEFUL:          0  USELESS:          0
L1D USEFUL LOAD PREFETCHES:          0 PREFETCH ISSUED TO LOWER LEVEL:          0  ACCURACY: -nan
L1D TIMELY PREFETCHES:          0 LATE PREFETCHES: 0 DROPPED PREFETCHES: 0
L1D PREFETCHES SAME FILL-ORIGIN LEVEL: 0 DIFFERENT FILL-ORIGIN LEVEL: 0
L1D AVERAGE MISS LATENCY: 27.948 cycles
L1D RQ	ACCESS:   11539637	FORWARD:          0	MERGED:    3346887	TO_CACHE:    8064478
L1D WQ	ACCESS:    6771059	FORWARD:     128272	MERGED:      66813	TO_CACHE:    6704246

L1D UNIQUE REGIONS ACCESSED: 0
L1D REGIONS CONFLICTS: 0
L1D Cross Page Prefetch Requests: 0
L1D Same Page Prefetch Requests: 0
L1D ROI Sum of L1D PQ occupancy: 0
L1D PREFETCHES PUSHED FROM L2C: 0
L1I TOTAL     ACCESS:   14415522  HIT:   10643060  MISS:    3772462  HIT %:    73.8306  MISS %:    26.1694   MPKI: 75.4492
L1I LOAD      ACCESS:    9395118  HIT:    9136989  MISS:     258129  HIT %:    97.2525  MISS %:    2.74748   MPKI: 5.16258
L1I PREFETCH  ACCESS:    5020404  HIT:    1506071  MISS:    3514333  HIT %:     29.999  MISS %:     70.001   MPKI: 70.2867
L1I PREFETCH  REQUESTED:    5262222  ISSUED:    5247730  USEFUL:    2365080  USELESS:    1149256
L1I USEFUL LOAD PREFETCHES:    2365080 PREFETCH ISSUED TO LOWER LEVEL:    3542847  ACCURACY: 66.7565
L1I TIMELY PREFETCHES:    2365080 LATE PREFETCHES: 28509 DROPPED PREFETCHES: 8286
L1I PREFETCHES SAME FILL-ORIGIN LEVEL: 3542847 DIFFERENT FILL-ORIGIN LEVEL: 0
L1I AVERAGE MISS LATENCY: 399681 cycles
L1I RQ	ACCESS:   13466417	FORWARD:          0	MERGED:    4048072	TO_CACHE:    9418345
L1I PQ	ACCESS:    5247730	FORWARD:          0	MERGED:     113782	TO_CACHE:    5133948

BTB TOTAL     ACCESS:    6210935  HIT:    4468586  MISS:    1742349  HIT %:    71.9471  MISS %:    28.0529   MPKI: 34.847
BTB BRANCH_DIRECT_JUMP	ACCESS:     566815  HIT:     417590  MISS:     149225
BTB BRANCH_INDIRECT	ACCESS:     197171  HIT:     163808  MISS:      33363
BTB BRANCH_CONDITIONAL	ACCESS:    3373174  HIT:    2911628  MISS:     461546
BTB BRANCH_DIRECT_CALL	ACCESS:     876399  HIT:     531835  MISS:     344564
BTB BRANCH_INDIRECT_CALL	ACCESS:     160491  HIT:      90228  MISS:      70263
BTB BRANCH_RETURN	ACCESS:    1036885  HIT:     353497  MISS:     683388
BTB BRANCH_OTHER ACCESS:          0  HIT:          0  MISS:          0

L2C TOTAL     ACCESS:    5264748  HIT:    4695254  MISS:     569494  HIT %:    89.1829  MISS %:    10.8171   MPKI: 11.3899
L2C LOAD      ACCESS:     939198  HIT:     765429  MISS:     173769  HIT %:    81.4982  MISS %:    18.5018   MPKI: 3.47538
L2C DATA LOAD MPKI: 2.82792
L2C INSTRUCTION LOAD MPKI: 0.64746
L2C RFO       ACCESS:     280199  HIT:     202801  MISS:      77398  HIT %:    72.3775  MISS %:    27.6225   MPKI: 1.54796
L2C PREFETCH  ACCESS:    3569613  HIT:    3282882  MISS:     286731  HIT %:    91.9674  MISS %:    8.03255   MPKI: 5.73462
L2C DATA PREFETCH MPKI: 0.24412
L2C INSTRUCTION PREFETCH MPKI: 5.4905
L2C WRITEBACK ACCESS:     466887  HIT:     437437  MISS:      29450  HIT %:    93.6923  MISS %:    6.30774   MPKI: 0.589
L2C LOAD TRANSLATION ACCESS:       3009  HIT:       1035  MISS:       1974  HIT %:    34.3968  MISS %:    65.6032   MPKI: 0.03948
L2C TRANSLATION FROM L1D PREFETCHER ACCESS:       5842  HIT:       5670  MISS:        172  HIT %:    97.0558  MISS %:     2.9442   MPKI: 0.00344
L2C PREFETCH  REQUESTED:      32923  ISSUED:      32923  USEFUL:      16012  USELESS:     271721
L2C USEFUL LOAD PREFETCHES:      16012 PREFETCH ISSUED TO LOWER LEVEL:     291786  ACCURACY: 5.48758
L2C TIMELY PREFETCHES:      16012 LATE PREFETCHES: 2866 DROPPED PREFETCHES: 0
L2C PREFETCHES SAME FILL-ORIGIN LEVEL: 15072 DIFFERENT FILL-ORIGIN LEVEL: 2189
L2C AVERAGE MISS LATENCY: 40.5066 cycles
L2C RQ	ACCESS:    1228269	FORWARD:          0	MERGED:          0	TO_CACHE:    1228248
L2C WQ	ACCESS:     466887	FORWARD:         21	MERGED:          0	TO_CACHE:     466887
L2C PQ	ACCESS:    3575770	FORWARD:          0	MERGED:        120	TO_CACHE:    3575650

L2C Instructions Evicting Data 132704
L2C Translations Evicting Data 1278
L2C Data Evicting Data 114677
L2C Instructions Evicting Instructions 173328
L2C Translations Evicting Instructions 841
L2C Data Evicting Instructions 115121
L2C Instructions Evicting Translations 866
L2C Translations Evicting Translations 27
L2C Data Evicting Translations 1202
L2C Dense regions hint from L2: 0
PSCL5 TOTAL     ACCESS:       6312  HIT:       6312  MISS:          0  HIT %:        100  MISS %:          0   MPKI: 0
PSCL5 LOAD TRANSLATION ACCESS:       2748  HIT:       2748  MISS:          0  HIT %:        100  MISS %:          0   MPKI: 0
PSCL5 TRANSLATION FROM L1D PREFETCHER ACCESS:       3564  HIT:       3564  MISS:          0  HIT %:        100  MISS %:          0   MPKI: 0
PSCL5 PREFETCH  REQUESTED:          0  ISSUED:          0  USEFUL:          0  USELESS:          0
PSCL5 USEFUL LOAD PREFETCHES:          0 PREFETCH ISSUED TO LOWER LEVEL:          0  ACCURACY: -nan
PSCL5 TIMELY PREFETCHES:          0 LATE PREFETCHES: 0 DROPPED PREFETCHES: 0
PSCL5 PREFETCHES SAME FILL-ORIGIN LEVEL: 0 DIFFERENT FILL-ORIGIN LEVEL: 0

PSCL4 TOTAL     ACCESS:       6208  HIT:       6202  MISS:          6  HIT %:    99.9034  MISS %:  0.0966495   MPKI: 0.00012
PSCL4 LOAD TRANSLATION ACCESS:       2648  HIT:       2642  MISS:          6  HIT %:    99.7734  MISS %:   0.226586   MPKI: 0.00012
PSCL4 TRANSLATION FROM L1D PREFETCHER ACCESS:       3560  HIT:       3560  MISS:          0  HIT %:        100  MISS %:          0   MPKI: 0
PSCL4 PREFETCH  REQUESTED:          0  ISSUED:          0  USEFUL:          0  USELESS:          0
PSCL4 USEFUL LOAD PREFETCHES:          0 PREFETCH ISSUED TO LOWER LEVEL:          0  ACCURACY: -nan
PSCL4 TIMELY PREFETCHES:          0 LATE PREFETCHES: 0 DROPPED PREFETCHES: 0
PSCL4 PREFETCHES SAME FILL-ORIGIN LEVEL: 0 DIFFERENT FILL-ORIGIN LEVEL: 0

PSCL3 TOTAL     ACCESS:       6309  HIT:       6303  MISS:          6  HIT %:    99.9049  MISS %:  0.0951022   MPKI: 0.00012
PSCL3 LOAD TRANSLATION ACCESS:       2749  HIT:       2743  MISS:          6  HIT %:    99.7817  MISS %:   0.218261   MPKI: 0.00012
PSCL3 TRANSLATION FROM L1D PREFETCHER ACCESS:       3560  HIT:       3560  MISS:          0  HIT %:        100  MISS %:          0   MPKI: 0
PSCL3 PREFETCH  REQUESTED:          0  ISSUED:          0  USEFUL:          0  USELESS:          0
PSCL3 USEFUL LOAD PREFETCHES:          0 PREFETCH ISSUED TO LOWER LEVEL:          0  ACCURACY: -nan
PSCL3 TIMELY PREFETCHES:          0 LATE PREFETCHES: 0 DROPPED PREFETCHES: 0
PSCL3 PREFETCHES SAME FILL-ORIGIN LEVEL: 0 DIFFERENT FILL-ORIGIN LEVEL: 0

PSCL2 TOTAL     ACCESS:       4078  HIT:       3790  MISS:        288  HIT %:    92.9377  MISS %:    7.06229   MPKI: 0.00576
PSCL2 LOAD TRANSLATION ACCESS:       2784  HIT:       2496  MISS:        288  HIT %:    89.6552  MISS %:    10.3448   MPKI: 0.00576
PSCL2 TRANSLATION FROM L1D PREFETCHER ACCESS:       1294  HIT:       1294  MISS:          0  HIT %:        100  MISS %:          0   MPKI: 0
PSCL2 PREFETCH  REQUESTED:          0  ISSUED:          0  USEFUL:          0  USELESS:          0
PSCL2 USEFUL LOAD PREFETCHES:          0 PREFETCH ISSUED TO LOWER LEVEL:          0  ACCURACY: -nan
PSCL2 TIMELY PREFETCHES:          0 LATE PREFETCHES: 0 DROPPED PREFETCHES: 0
PSCL2 PREFETCHES SAME FILL-ORIGIN LEVEL: 0 DIFFERENT FILL-ORIGIN LEVEL: 0

LLC TOTAL     ACCESS:     650377  HIT:     609995  MISS:      40382  HIT %:     93.791  MISS %:    6.20901   MPKI: 0.80764
LLC LOAD      ACCESS:     170906  HIT:     157751  MISS:      13155  HIT %:    92.3028  MISS %:    7.69721   MPKI: 0.2631
LLC RFO       ACCESS:      77393  HIT:      54547  MISS:      22846  HIT %:    70.4805  MISS %:    29.5195   MPKI: 0.45692
LLC PREFETCH  ACCESS:     291778  HIT:     288002  MISS:       3776  HIT %:    98.7059  MISS %:    1.29413   MPKI: 0.07552
LLC WRITEBACK ACCESS:     108154  HIT:     107787  MISS:        367  HIT %:    99.6607  MISS %:   0.339331   MPKI: 0.00734
LLC LOAD TRANSLATION ACCESS:       1974  HIT:       1754  MISS:        220  HIT %:    88.8551  MISS %:    11.1449   MPKI: 0.0044
LLC TRANSLATION FROM L1D PREFETCHER ACCESS:        172  HIT:        154  MISS:         18  HIT %:    89.5349  MISS %:    10.4651   MPKI: 0.00036
LLC PREFETCH  REQUESTED:          0  ISSUED:          0  USEFUL:        854  USELESS:      10006
LLC USEFUL LOAD PREFETCHES:        854 PREFETCH ISSUED TO LOWER LEVEL:       3776  ACCURACY: 22.6165
LLC TIMELY PREFETCHES:        854 LATE PREFETCHES: 0 DROPPED PREFETCHES: 0
LLC PREFETCHES SAME FILL-ORIGIN LEVEL: 134 DIFFERENT FILL-ORIGIN LEVEL: 0
LLC AVERAGE MISS LATENCY: 174.433 cycles
LLC RQ	ACCESS:     250447	FORWARD:          0	MERGED:          0	TO_CACHE:     250445
LLC WQ	ACCESS:     108154	FORWARD:          2	MERGED:          0	TO_CACHE:     108154
LLC PQ	ACCESS:     291786	FORWARD:          0	MERGED:          5	TO_CACHE:     291781

LLC Dense regions hint to LLC: 0

RAW hits: 930434
Loads Generated: 12470071
Loads sent to L1D: 11539637
Stores Generated: 6771037
Stores sent to L1D: 6771059
Major fault: 0 Minor fault: 2466
Allocated PAGES: 2466
I-Shadow cache 408 bytes
Touched + WorthPF tables 6144 bytes 
MMA filter 174 bytes 
FNL filter 272 bytes 
TOTAL PREFETCHER STORAGE SIZE: 25174 bytes
CPU 0 L1I next line prefetcher final stats
------------------
Depth Distribution
------------------
depth 0: 166582
depth 1: 8143209
depth 2: 352684
depth 3: 45083
depth 4: 1663
depth 5: 2417
depth 6: 1740
depth 7: 1474
depth 8: 1891
depth 9: 2373
depth 10: 553
depth 11: 2010
depth 12: 266
depth 13: 16
depth 14: 0
depth 15: 0
depth 16: 0
depth 17: 0
depth 18: 0
depth 19: 0
depth 20: 0
depth 21: 0
depth 22: 0
depth 23: 0
depth 24: 0
depth 25: 0
depth 26: 0
depth 27: 0
depth 28: 0
depth 29: 0
Total: 8721961
------------------
ST read accesses: 3690870
ST write accesses: 558353
PT read accesses: 48029686
PT write accesses: 4960463
FILTER read accesses: 14877130
FILTER write accesses: 1291965
GHR read accesses: 6814228
GHR write accesses: 329943
PERC read accesses: 308193741
PERC write accesses: 370861
GHR counter read accesses: 8498446
GHR counter write accesses: 9897193
GHR ip read accesses: 13057680
GHR ip write accesses: 16996892
ST tag read accesses: 1918541487
ST tag write accesses: 207465581

DRAM Statistics
 CHANNEL 0
 RQ ROW_BUFFER_HIT:      15690  ROW_BUFFER_MISS:      24318
 DBUS_CONGESTED:          0
 WQ ROW_BUFFER_HIT:       2194  ROW_BUFFER_MISS:      18454  FULL:          0

 AVG_CONGESTED_CYCLE: -
 All warmup complete: 2
Channel 0 Bank busy for read cycles: 0
Channel 0 Bank busy for write cycles: 0
Channel 0
Rank 0
0banks busy for read cycles: 75316227
0banks busy for write cycles: 4109
1banks busy for read cycles: 1662232
1banks busy for write cycles: 571318
2banks busy for read cycles: 230489
2banks busy for write cycles: 201924
3banks busy for read cycles: 83592
3banks busy for write cycles: 139564
4banks busy for read cycles: 46297
4banks busy for write cycles: 120916
5banks busy for read cycles: 39047
5banks busy for write cycles: 104247
6banks busy for read cycles: 42458
6banks busy for write cycles: 101680
7banks busy for read cycles: 52990
7banks busy for write cycles: 96786
8banks busy for read cycles: 137461
8banks busy for write cycles: 168669

CPU 0 Branch Prediction Accuracy: 99.7477% MPKI: 0.46156 Average ROB Occupancy at Mispredict: 73.4012
Branch types
NOT_BRANCH: 40853611 81.7072%
BRANCH_DIRECT_JUMP: 566815 1.13363%
BRANCH_INDIRECT: 197171 0.394342%
BRANCH_CONDITIONAL: 6308406 12.6168%
BRANCH_DIRECT_CALL: 876399 1.7528%
BRANCH_INDIRECT_CALL: 160491 0.320982%
BRANCH_RETURN: 1036885 2.07377%
BRANCH_OTHER: 0 0%

DRAM PAGES: 1048576
Allocated PAGES: 2466
