
*** ChampSim Multicore Out-of-Order Simulator ***

Warmup Instructions: 50000000
Simulation Instructions: 50000000
Number of CPUs: 1
LLC sets: 2048
LLC ways: 16
Off-chip DRAM Size: 4096 MB Channels: 1 Width: 64-bit Data Rate: 6400 MT/s
CPU 0 runs ../IPC-traces//server_021.champsimtrace.xz
.xz
BTB has LRU replacement policy
ITLB has LRU replacement policy
DTLB has LRU replacement policy
STLB has LRU replacement policy
CPU 0 L1I next line prefetcher
L1I has LRU replacement policy
L1D has LRU replacement policy
Bingo PHT WAYS: 16 and PHT_SIZE: 16384
Initialize SRRIP state for L2C
Initialize DRRIP state for LLC
Heartbeat CPU 0 instructions: 10000000 cycles: 3287108 heartbeat IPC: 3.04219 cumulative IPC: 3.04219 (Simulation time: 0 hr 3 min 33 sec) 
Heartbeat CPU 0 instructions: 20000000 cycles: 6563490 heartbeat IPC: 3.05215 cumulative IPC: 3.04716 (Simulation time: 0 hr 6 min 27 sec) 
Heartbeat CPU 0 instructions: 30000000 cycles: 9873512 heartbeat IPC: 3.02113 cumulative IPC: 3.03843 (Simulation time: 0 hr 9 min 18 sec) 
Heartbeat CPU 0 instructions: 40000000 cycles: 13137832 heartbeat IPC: 3.06343 cumulative IPC: 3.04464 (Simulation time: 0 hr 11 min 44 sec) 
Heartbeat CPU 0 instructions: 50000000 cycles: 16431712 heartbeat IPC: 3.03593 cumulative IPC: 3.0429 (Simulation time: 0 hr 13 min 56 sec) 

Warmup complete CPU 0 instructions: 50000004 cycles: 16431713 (Simulation time: 0 hr 13 min 56 sec) 

Heartbeat CPU 0 instructions: 60000001 cycles: 36471710 heartbeat IPC: 0.499002 cumulative IPC: 0.499002 (Simulation time: 0 hr 17 min 35 sec) 
Heartbeat CPU 0 instructions: 70000000 cycles: 55936027 heartbeat IPC: 0.513761 cumulative IPC: 0.506274 (Simulation time: 0 hr 21 min 13 sec) 
Heartbeat CPU 0 instructions: 80000003 cycles: 74748086 heartbeat IPC: 0.531574 cumulative IPC: 0.514435 (Simulation time: 0 hr 24 min 41 sec) 
Heartbeat CPU 0 instructions: 90000000 cycles: 93619002 heartbeat IPC: 0.529916 cumulative IPC: 0.51822 (Simulation time: 0 hr 28 min 25 sec) 
Heartbeat CPU 0 instructions: 100000002 cycles: 112410859 heartbeat IPC: 0.532146 cumulative IPC: 0.520947 (Simulation time: 0 hr 31 min 25 sec) 
Finished CPU 0 instructions: 50000002 cycles: 95979147 cumulative IPC: 0.520947 (Simulation time: 0 hr 31 min 25 sec) 

ChampSim completed all CPUs

Region of Interest Statistics

CPU 0 cumulative IPC: 0.520947 instructions: 50000002 cycles: 95979147

CPU 0 Average Load ROB stall cycles: 2.99763e+07
CPU 0 Fraction of times ROB stalled by Loads: 46.0072
CPU 0 Percentage of Load stall cycles in Total stall cycles: 2.72427e+08
Issued all: 52627026
Issued LT all: 47351599
rob_not_full_when_issued_lt_all: 16822937
Issued LT one: 41502566
rob_not_full_when_issued_lt_one: 12789497
FVP critical_dynamic_instances_0: 2654366
FVP unique_critical_ips_0: 2750
 Total stall cycles: 78305963
 Total load stall cycles: 213326345665840
Unique Load IPs: 6062
CPU 0 NUM of IPS identified critical: 0
CPU 0 Num of Load IPs stalling ROB: 0
Threshold modification factor: 0
Trouble in retire width: -nan
MaC = Marked as critical.
lt_50_percent_before_Mac: 0
gt_90_percent_before_Mac: 0
gt_75_percent_before_Mac: 0
gt_50_percent_before_Mac: 0
stall_proportion_bin_same_before_after: 0
stall_proportion_bin_lower_before_after: 0
stall_proportion_bin_upper_before_after: 0
average_stall_proportion_before: -nan
average_stall_proportion_after: -nan
Critical IP stalls, total frequency: 0
Non-critical IP stalls, total frequency: 0
Total Freq all stalling IPs: 0
Critical_IP_Detector_Accuracy_70: 0.000363636
Critical_IP_Detector_Accuracy_80: 0.000363636
Critical_IP_Detector_Accuracy_90: 0.000363636
Critical_IP_Detector_Coverage_70: 1
Critical_IP_Detector_Coverage_80: 1
Critical_IP_Detector_Coverage_90: 1
stat_90_percent_critical_ip_stalls_freq: 293892
stat_90_percent_non_critical_ip_stalls_freq: 18446744073709257724
AVERAGE_ROB_Occupancy_90_Percent_Critical_IP_Stalls: 313.546
AVERAGE_ROB_Occupancy_90_Percent_Non_Critical_IP_Stalls: 2.96516e-11
Critical_IP_ROB_Stalls_Bucket_0: 0
Non-critical_IP_ROB_Stalls_Bucket_0: 504762
Critical_IP_ROB_Stalls_Bucket_1: 0
Non-critical_IP_ROB_Stalls_Bucket_1: 609301
Critical_IP_ROB_Stalls_Bucket_2: 0
Non-critical_IP_ROB_Stalls_Bucket_2: 427450
Critical_IP_ROB_Stalls_Bucket_3: 0
Non-critical_IP_ROB_Stalls_Bucket_3: 259922
Critical_IP_ROB_Stalls_Bucket_4: 0
Non-critical_IP_ROB_Stalls_Bucket_4: 169798
Critical_IP_ROB_Stalls_Bucket_5: 0
Non-critical_IP_ROB_Stalls_Bucket_5: 152236
Critical_IP_ROB_Stalls_Bucket_6: 0
Non-critical_IP_ROB_Stalls_Bucket_6: 1150632
0 => IPs accounting for >50 percent of stalls, 1 => 55, 2 => 60, 3 => 65 and so on till 90.
percent50: inf num IPs:  1
percent55: inf num IPs: 1
percent60: inf num IPs: 1
percent65: inf num IPs: 1
percent70: inf num IPs: 1
percent75: inf num IPs: 1
percent80: inf num IPs: 1
percent85: inf num IPs: 1
percent90: inf num IPs: 1
Critical_ROB_Stalls_Percent_0_Bucket_0: 645
Non-critical_ROB_Stalls_Percent_0_Bucket_0: 504117
Critical_ROB_Stalls_Percent_0_Bucket_1: 3371
Non-critical_ROB_Stalls_Percent_0_Bucket_1: 605930
Critical_ROB_Stalls_Percent_0_Bucket_2: 13507
Non-critical_ROB_Stalls_Percent_0_Bucket_2: 413943
Critical_ROB_Stalls_Percent_0_Bucket_3: 20467
Non-critical_ROB_Stalls_Percent_0_Bucket_3: 239455
Critical_ROB_Stalls_Percent_0_Bucket_4: 15779
Non-critical_ROB_Stalls_Percent_0_Bucket_4: 154019
Critical_ROB_Stalls_Percent_0_Bucket_5: 15540
Non-critical_ROB_Stalls_Percent_0_Bucket_5: 136696
Critical_ROB_Stalls_Percent_0_Bucket_6: 224583
Non-critical_ROB_Stalls_Percent_0_Bucket_6: 926049
Critical_ROB_Stalls_Percent_1_Bucket_0: 645
Non-critical_ROB_Stalls_Percent_1_Bucket_0: 504117
Critical_ROB_Stalls_Percent_1_Bucket_1: 3371
Non-critical_ROB_Stalls_Percent_1_Bucket_1: 605930
Critical_ROB_Stalls_Percent_1_Bucket_2: 13507
Non-critical_ROB_Stalls_Percent_1_Bucket_2: 413943
Critical_ROB_Stalls_Percent_1_Bucket_3: 20467
Non-critical_ROB_Stalls_Percent_1_Bucket_3: 239455
Critical_ROB_Stalls_Percent_1_Bucket_4: 15779
Non-critical_ROB_Stalls_Percent_1_Bucket_4: 154019
Critical_ROB_Stalls_Percent_1_Bucket_5: 15540
Non-critical_ROB_Stalls_Percent_1_Bucket_5: 136696
Critical_ROB_Stalls_Percent_1_Bucket_6: 224583
Non-critical_ROB_Stalls_Percent_1_Bucket_6: 926049
Critical_ROB_Stalls_Percent_2_Bucket_0: 645
Non-critical_ROB_Stalls_Percent_2_Bucket_0: 504117
Critical_ROB_Stalls_Percent_2_Bucket_1: 3371
Non-critical_ROB_Stalls_Percent_2_Bucket_1: 605930
Critical_ROB_Stalls_Percent_2_Bucket_2: 13507
Non-critical_ROB_Stalls_Percent_2_Bucket_2: 413943
Critical_ROB_Stalls_Percent_2_Bucket_3: 20467
Non-critical_ROB_Stalls_Percent_2_Bucket_3: 239455
Critical_ROB_Stalls_Percent_2_Bucket_4: 15779
Non-critical_ROB_Stalls_Percent_2_Bucket_4: 154019
Critical_ROB_Stalls_Percent_2_Bucket_5: 15540
Non-critical_ROB_Stalls_Percent_2_Bucket_5: 136696
Critical_ROB_Stalls_Percent_2_Bucket_6: 224583
Non-critical_ROB_Stalls_Percent_2_Bucket_6: 926049
Critical_ROB_Stalls_Percent_3_Bucket_0: 645
Non-critical_ROB_Stalls_Percent_3_Bucket_0: 504117
Critical_ROB_Stalls_Percent_3_Bucket_1: 3371
Non-critical_ROB_Stalls_Percent_3_Bucket_1: 605930
Critical_ROB_Stalls_Percent_3_Bucket_2: 13507
Non-critical_ROB_Stalls_Percent_3_Bucket_2: 413943
Critical_ROB_Stalls_Percent_3_Bucket_3: 20467
Non-critical_ROB_Stalls_Percent_3_Bucket_3: 239455
Critical_ROB_Stalls_Percent_3_Bucket_4: 15779
Non-critical_ROB_Stalls_Percent_3_Bucket_4: 154019
Critical_ROB_Stalls_Percent_3_Bucket_5: 15540
Non-critical_ROB_Stalls_Percent_3_Bucket_5: 136696
Critical_ROB_Stalls_Percent_3_Bucket_6: 224583
Non-critical_ROB_Stalls_Percent_3_Bucket_6: 926049
Critical_ROB_Stalls_Percent_4_Bucket_0: 645
Non-critical_ROB_Stalls_Percent_4_Bucket_0: 504117
Critical_ROB_Stalls_Percent_4_Bucket_1: 3371
Non-critical_ROB_Stalls_Percent_4_Bucket_1: 605930
Critical_ROB_Stalls_Percent_4_Bucket_2: 13507
Non-critical_ROB_Stalls_Percent_4_Bucket_2: 413943
Critical_ROB_Stalls_Percent_4_Bucket_3: 20467
Non-critical_ROB_Stalls_Percent_4_Bucket_3: 239455
Critical_ROB_Stalls_Percent_4_Bucket_4: 15779
Non-critical_ROB_Stalls_Percent_4_Bucket_4: 154019
Critical_ROB_Stalls_Percent_4_Bucket_5: 15540
Non-critical_ROB_Stalls_Percent_4_Bucket_5: 136696
Critical_ROB_Stalls_Percent_4_Bucket_6: 224583
Non-critical_ROB_Stalls_Percent_4_Bucket_6: 926049
Critical_ROB_Stalls_Percent_5_Bucket_0: 645
Non-critical_ROB_Stalls_Percent_5_Bucket_0: 504117
Critical_ROB_Stalls_Percent_5_Bucket_1: 3371
Non-critical_ROB_Stalls_Percent_5_Bucket_1: 605930
Critical_ROB_Stalls_Percent_5_Bucket_2: 13507
Non-critical_ROB_Stalls_Percent_5_Bucket_2: 413943
Critical_ROB_Stalls_Percent_5_Bucket_3: 20467
Non-critical_ROB_Stalls_Percent_5_Bucket_3: 239455
Critical_ROB_Stalls_Percent_5_Bucket_4: 15779
Non-critical_ROB_Stalls_Percent_5_Bucket_4: 154019
Critical_ROB_Stalls_Percent_5_Bucket_5: 15540
Non-critical_ROB_Stalls_Percent_5_Bucket_5: 136696
Critical_ROB_Stalls_Percent_5_Bucket_6: 224583
Non-critical_ROB_Stalls_Percent_5_Bucket_6: 926049
Critical_ROB_Stalls_Percent_6_Bucket_0: 645
Non-critical_ROB_Stalls_Percent_6_Bucket_0: 504117
Critical_ROB_Stalls_Percent_6_Bucket_1: 3371
Non-critical_ROB_Stalls_Percent_6_Bucket_1: 605930
Critical_ROB_Stalls_Percent_6_Bucket_2: 13507
Non-critical_ROB_Stalls_Percent_6_Bucket_2: 413943
Critical_ROB_Stalls_Percent_6_Bucket_3: 20467
Non-critical_ROB_Stalls_Percent_6_Bucket_3: 239455
Critical_ROB_Stalls_Percent_6_Bucket_4: 15779
Non-critical_ROB_Stalls_Percent_6_Bucket_4: 154019
Critical_ROB_Stalls_Percent_6_Bucket_5: 15540
Non-critical_ROB_Stalls_Percent_6_Bucket_5: 136696
Critical_ROB_Stalls_Percent_6_Bucket_6: 224583
Non-critical_ROB_Stalls_Percent_6_Bucket_6: 926049
Critical_ROB_Stalls_Percent_7_Bucket_0: 645
Non-critical_ROB_Stalls_Percent_7_Bucket_0: 504117
Critical_ROB_Stalls_Percent_7_Bucket_1: 3371
Non-critical_ROB_Stalls_Percent_7_Bucket_1: 605930
Critical_ROB_Stalls_Percent_7_Bucket_2: 13507
Non-critical_ROB_Stalls_Percent_7_Bucket_2: 413943
Critical_ROB_Stalls_Percent_7_Bucket_3: 20467
Non-critical_ROB_Stalls_Percent_7_Bucket_3: 239455
Critical_ROB_Stalls_Percent_7_Bucket_4: 15779
Non-critical_ROB_Stalls_Percent_7_Bucket_4: 154019
Critical_ROB_Stalls_Percent_7_Bucket_5: 15540
Non-critical_ROB_Stalls_Percent_7_Bucket_5: 136696
Critical_ROB_Stalls_Percent_7_Bucket_6: 224583
Non-critical_ROB_Stalls_Percent_7_Bucket_6: 926049
Critical_ROB_Stalls_Percent_8_Bucket_0: 645
Non-critical_ROB_Stalls_Percent_8_Bucket_0: 504117
Critical_ROB_Stalls_Percent_8_Bucket_1: 3371
Non-critical_ROB_Stalls_Percent_8_Bucket_1: 605930
Critical_ROB_Stalls_Percent_8_Bucket_2: 13507
Non-critical_ROB_Stalls_Percent_8_Bucket_2: 413943
Critical_ROB_Stalls_Percent_8_Bucket_3: 20467
Non-critical_ROB_Stalls_Percent_8_Bucket_3: 239455
Critical_ROB_Stalls_Percent_8_Bucket_4: 15779
Non-critical_ROB_Stalls_Percent_8_Bucket_4: 154019
Critical_ROB_Stalls_Percent_8_Bucket_5: 15540
Non-critical_ROB_Stalls_Percent_8_Bucket_5: 136696
Critical_ROB_Stalls_Percent_8_Bucket_6: 224583
Non-critical_ROB_Stalls_Percent_8_Bucket_6: 926049
Average ROB occupancy Load Stall Begin: 186.903
Average ROB occupancy Load Stall End: 195.206
Min ROB occupancy Load Stall Begin: 1
Max ROB occupancy Load Stall Begin: 352
Min ROB occupancy Load Stall End: 1
Max ROB occupancy Load Stall End: 352
Average ROB occupancy Critical Load Stall Begin: -nan
Average ROB occupancy Critical Load Stall End: -nan
Min ROB occupancy Critical Load Stall Begin: 400
Max ROB occupancy Critical Load Stall Begin: 0
Min ROB occupancy Critical Load Stall End: 400
Max ROB occupancy Critical Load Stall End: 0
 ROB Load Stall Begin Bucket Count 0: 709745
 ROB Load Stall End Bucket Count 0: 504762
 ROB Critical Load Stall Begin Bucket Count 0: 0
 ROB Critical Load Stall End Bucket Count 0: 0
 ROB Load Stall Begin Bucket Count 1: 536771
 ROB Load Stall End Bucket Count 1: 609301
 ROB Critical Load Stall Begin Bucket Count 1: 0
 ROB Critical Load Stall End Bucket Count 1: 0
 ROB Load Stall Begin Bucket Count 2: 374747
 ROB Load Stall End Bucket Count 2: 427450
 ROB Critical Load Stall Begin Bucket Count 2: 0
 ROB Critical Load Stall End Bucket Count 2: 0
 ROB Load Stall Begin Bucket Count 3: 221741
 ROB Load Stall End Bucket Count 3: 259922
 ROB Critical Load Stall Begin Bucket Count 3: 0
 ROB Critical Load Stall End Bucket Count 3: 0
 ROB Load Stall Begin Bucket Count 4: 156392
 ROB Load Stall End Bucket Count 4: 169798
 ROB Critical Load Stall Begin Bucket Count 4: 0
 ROB Critical Load Stall End Bucket Count 4: 0
 ROB Load Stall Begin Bucket Count 5: 153912
 ROB Load Stall End Bucket Count 5: 152236
 ROB Critical Load Stall Begin Bucket Count 5: 0
 ROB Critical Load Stall End Bucket Count 5: 0
 ROB Load Stall Begin Bucket Count 6: 1120793
 ROB Load Stall End Bucket Count 6: 1150632
 ROB Critical Load Stall Begin Bucket Count 6: 0
 ROB Critical Load Stall End Bucket Count 6: 0
PIST Tag Read Accesses: 0
PIST Read Accesses: 0
PIST Tag Write Accesses: 0
PIST Write Accesses: 0
Criticality detector called times: 0
Max global_stall_cycles_count: 0
Threshold Modified: 0 times, factor: 0
ITLB TOTAL     ACCESS:   10438340  HIT:    9952842  MISS:     485498  HIT %:    95.3489  MISS %:     4.6511   MPKI: 9.70996
ITLB LOAD TRANSLATION ACCESS:    8505808  HIT:    8494410  MISS:      11398  HIT %:     99.866  MISS %:   0.134003   MPKI: 0.22796
ITLB TRANSLATION FROM L1D PREFETCHER ACCESS:    1932532  HIT:    1458432  MISS:     474100  HIT %:    75.4674  MISS %:    24.5326   MPKI: 9.482
ITLB PREFETCH  REQUESTED:          0  ISSUED:          0  USEFUL:     428425  USELESS:      45678
ITLB USEFUL LOAD PREFETCHES:     428425 PREFETCH ISSUED TO LOWER LEVEL:          0  ACCURACY: inf
ITLB TIMELY PREFETCHES:     428425 LATE PREFETCHES: 159 DROPPED PREFETCHES: 0
ITLB PREFETCHES SAME FILL-ORIGIN LEVEL: 0 DIFFERENT FILL-ORIGIN LEVEL: 0
ITLB AVERAGE MISS LATENCY: 21876.7 cycles
ITLB RQ	ACCESS:   14940562	FORWARD:          0	MERGED:    4454012	TO_CACHE:   10486550

DTLB TOTAL     ACCESS:   10880450  HIT:   10476583  MISS:     403867  HIT %:    96.2881  MISS %:    3.71186   MPKI: 8.07734
DTLB LOAD TRANSLATION ACCESS:   10880450  HIT:   10476583  MISS:     403867  HIT %:    96.2881  MISS %:    3.71186   MPKI: 8.07734
DTLB PREFETCH  REQUESTED:          0  ISSUED:          0  USEFUL:          0  USELESS:          0
DTLB USEFUL LOAD PREFETCHES:          0 PREFETCH ISSUED TO LOWER LEVEL:          0  ACCURACY: -nan
DTLB TIMELY PREFETCHES:          0 LATE PREFETCHES: 0 DROPPED PREFETCHES: 0
DTLB PREFETCHES SAME FILL-ORIGIN LEVEL: 0 DIFFERENT FILL-ORIGIN LEVEL: 0
DTLB AVERAGE MISS LATENCY: 16.5097 cycles
DTLB RQ	ACCESS:   16202185	FORWARD:          0	MERGED:    5238480	TO_CACHE:   10963705

STLB TOTAL     ACCESS:     889365  HIT:     869024  MISS:      20341  HIT %:    97.7129  MISS %:    2.28714   MPKI: 0.40682
STLB LOAD TRANSLATION ACCESS:     415106  HIT:     395159  MISS:      19947  HIT %:    95.1947  MISS %:    4.80528   MPKI: 0.39894
STLB TRANSLATION FROM L1D PREFETCHER ACCESS:     474259  HIT:     473865  MISS:        394  HIT %:    99.9169  MISS %:   0.083077   MPKI: 0.00788
STLB PREFETCH  REQUESTED:          0  ISSUED:          0  USEFUL:        181  USELESS:        199
STLB USEFUL LOAD PREFETCHES:        181 PREFETCH ISSUED TO LOWER LEVEL:          0  ACCURACY: inf
STLB TIMELY PREFETCHES:        181 LATE PREFETCHES: 0 DROPPED PREFETCHES: 0
STLB PREFETCHES SAME FILL-ORIGIN LEVEL: 0 DIFFERENT FILL-ORIGIN LEVEL: 0
STLB AVERAGE MISS LATENCY: 155.178 cycles
STLB RQ	ACCESS:     889365	FORWARD:          0	MERGED:          0	TO_CACHE:     889365

STLB Hit, L1D data hit: 0
STLB Hit, L2C data hit: 0
STLB Hit, LLC data hit: 0
STLB Hit, LLC data miss: 0
STLB STLB hints to L2: 0
L1D TOTAL     ACCESS:   13826017  HIT:   12011861  MISS:    1814156  HIT %:    86.8787  MISS %:    13.1213   MPKI: 36.2831
L1D LOAD      ACCESS:    7391576  HIT:    6569311  MISS:     822265  HIT %:    88.8756  MISS %:    11.1244   MPKI: 16.4453
L1D RFO       ACCESS:    6434441  HIT:    5442550  MISS:     991891  HIT %:    84.5847  MISS %:    15.4153   MPKI: 19.8378
L1D PREFETCH  REQUESTED:          0  ISSUED:          0  USEFUL:          0  USELESS:          0
L1D USEFUL LOAD PREFETCHES:          0 PREFETCH ISSUED TO LOWER LEVEL:          0  ACCURACY: -nan
L1D TIMELY PREFETCHES:          0 LATE PREFETCHES: 0 DROPPED PREFETCHES: 0
L1D PREFETCHES SAME FILL-ORIGIN LEVEL: 0 DIFFERENT FILL-ORIGIN LEVEL: 0
L1D AVERAGE MISS LATENCY: 147.311 cycles
L1D RQ	ACCESS:   11074940	FORWARD:          0	MERGED:    3517132	TO_CACHE:    7433407
L1D WQ	ACCESS:    8864293	FORWARD:     124401	MERGED:      95515	TO_CACHE:    8768778

L1D UNIQUE REGIONS ACCESSED: 0
L1D REGIONS CONFLICTS: 0
L1D Cross Page Prefetch Requests: 0
L1D Same Page Prefetch Requests: 0
L1D ROI Sum of L1D PQ occupancy: 0
L1D PREFETCHES PUSHED FROM L2C: 0
L1I TOTAL     ACCESS:   14859463  HIT:   11702440  MISS:    3157023  HIT %:    78.7541  MISS %:    21.2459   MPKI: 63.1405
L1I LOAD      ACCESS:    9928501  HIT:    9910450  MISS:      18051  HIT %:    99.8182  MISS %:    0.18181   MPKI: 0.36102
L1I PREFETCH  ACCESS:    4930962  HIT:    1791990  MISS:    3138972  HIT %:    36.3416  MISS %:    63.6584   MPKI: 62.7794
L1I PREFETCH  REQUESTED:    5212461  ISSUED:    5209263  USEFUL:    2639628  USELESS:     499366
L1I USEFUL LOAD PREFETCHES:    2639628 PREFETCH ISSUED TO LOWER LEVEL:    3146690  ACCURACY: 83.8859
L1I TIMELY PREFETCHES:    2639628 LATE PREFETCHES: 5868 DROPPED PREFETCHES: 0
L1I PREFETCHES SAME FILL-ORIGIN LEVEL: 3146690 DIFFERENT FILL-ORIGIN LEVEL: 0
L1I AVERAGE MISS LATENCY: 123406 cycles
L1I RQ	ACCESS:   14204113	FORWARD:          0	MERGED:    4272045	TO_CACHE:    9932068
L1I PQ	ACCESS:    5209263	FORWARD:          0	MERGED:     200769	TO_CACHE:    5008494

BTB TOTAL     ACCESS:    5300075  HIT:    5041527  MISS:     258548  HIT %:    95.1218  MISS %:     4.8782   MPKI: 5.17096
BTB BRANCH_DIRECT_JUMP	ACCESS:     445212  HIT:     443383  MISS:       1829
BTB BRANCH_INDIRECT	ACCESS:      50481  HIT:      50386  MISS:         95
BTB BRANCH_CONDITIONAL	ACCESS:    2966952  HIT:    2961198  MISS:       5754
BTB BRANCH_DIRECT_CALL	ACCESS:     758223  HIT:     754416  MISS:       3807
BTB BRANCH_INDIRECT_CALL	ACCESS:     160492  HIT:     130806  MISS:      29686
BTB BRANCH_RETURN	ACCESS:     918715  HIT:     701338  MISS:     217377
BTB BRANCH_OTHER ACCESS:          0  HIT:          0  MISS:          0

L2C TOTAL     ACCESS:    6525260  HIT:    4679900  MISS:    1845360  HIT %:    71.7197  MISS %:    28.2803   MPKI: 36.9072
L2C LOAD      ACCESS:     834438  HIT:     487266  MISS:     347172  HIT %:    58.3945  MISS %:    41.6055   MPKI: 6.94344
L2C DATA LOAD MPKI: 6.8608
L2C INSTRUCTION LOAD MPKI: 0.08264
L2C RFO       ACCESS:     991887  HIT:      33734  MISS:     958153  HIT %:    3.40099  MISS %:     96.599   MPKI: 19.1631
L2C PREFETCH  ACCESS:    3509708  HIT:    3042849  MISS:     466859  HIT %:    86.6981  MISS %:    13.3019   MPKI: 9.33718
L2C DATA PREFETCH MPKI: 6.03192
L2C INSTRUCTION PREFETCH MPKI: 3.30526
L2C WRITEBACK ACCESS:    1167342  HIT:    1103500  MISS:      63842  HIT %:     94.531  MISS %:    5.46901   MPKI: 1.27684
L2C LOAD TRANSLATION ACCESS:      21322  HIT:      12434  MISS:       8888  HIT %:    58.3154  MISS %:    41.6846   MPKI: 0.17776
L2C TRANSLATION FROM L1D PREFETCHER ACCESS:        563  HIT:        117  MISS:        446  HIT %:    20.7815  MISS %:    79.2185   MPKI: 0.00892
L2C PREFETCH  REQUESTED:     372192  ISSUED:     372192  USEFUL:     289826  USELESS:     177538
L2C USEFUL LOAD PREFETCHES:     289826 PREFETCH ISSUED TO LOWER LEVEL:     467757  ACCURACY: 61.9608
L2C TIMELY PREFETCHES:     289826 LATE PREFETCHES: 898 DROPPED PREFETCHES: 0
L2C PREFETCHES SAME FILL-ORIGIN LEVEL: 302494 DIFFERENT FILL-ORIGIN LEVEL: 0
L2C AVERAGE MISS LATENCY: 166.855 cycles
L2C RQ	ACCESS:    1848224	FORWARD:          0	MERGED:          0	TO_CACHE:    1848210
L2C WQ	ACCESS:    1167343	FORWARD:         14	MERGED:          0	TO_CACHE:    1167343
L2C PQ	ACCESS:    3517033	FORWARD:          0	MERGED:          0	TO_CACHE:    3517033

L2C Instructions Evicting Data 153579
L2C Translations Evicting Data 8407
L2C Data Evicting Data 1446626
L2C Instructions Evicting Instructions 14945
L2C Translations Evicting Instructions 898
L2C Data Evicting Instructions 147961
L2C Instructions Evicting Translations 871
L2C Translations Evicting Translations 29
L2C Data Evicting Translations 8202
L2C Dense regions hint from L2: 0
PSCL5 TOTAL     ACCESS:      20341  HIT:      20341  MISS:          0  HIT %:        100  MISS %:          0   MPKI: 0
PSCL5 LOAD TRANSLATION ACCESS:      19947  HIT:      19947  MISS:          0  HIT %:        100  MISS %:          0   MPKI: 0
PSCL5 TRANSLATION FROM L1D PREFETCHER ACCESS:        394  HIT:        394  MISS:          0  HIT %:        100  MISS %:          0   MPKI: 0
PSCL5 PREFETCH  REQUESTED:          0  ISSUED:          0  USEFUL:          0  USELESS:          0
PSCL5 USEFUL LOAD PREFETCHES:          0 PREFETCH ISSUED TO LOWER LEVEL:          0  ACCURACY: -nan
PSCL5 TIMELY PREFETCHES:          0 LATE PREFETCHES: 0 DROPPED PREFETCHES: 0
PSCL5 PREFETCHES SAME FILL-ORIGIN LEVEL: 0 DIFFERENT FILL-ORIGIN LEVEL: 0

PSCL4 TOTAL     ACCESS:      19527  HIT:      19484  MISS:         43  HIT %:    99.7798  MISS %:   0.220208   MPKI: 0.00086
PSCL4 LOAD TRANSLATION ACCESS:      19147  HIT:      19104  MISS:         43  HIT %:    99.7754  MISS %:   0.224578   MPKI: 0.00086
PSCL4 TRANSLATION FROM L1D PREFETCHER ACCESS:        380  HIT:        380  MISS:          0  HIT %:        100  MISS %:          0   MPKI: 0
PSCL4 PREFETCH  REQUESTED:          0  ISSUED:          0  USEFUL:          0  USELESS:          0
PSCL4 USEFUL LOAD PREFETCHES:          0 PREFETCH ISSUED TO LOWER LEVEL:          0  ACCURACY: -nan
PSCL4 TIMELY PREFETCHES:          0 LATE PREFETCHES: 0 DROPPED PREFETCHES: 0
PSCL4 PREFETCHES SAME FILL-ORIGIN LEVEL: 0 DIFFERENT FILL-ORIGIN LEVEL: 0

PSCL3 TOTAL     ACCESS:      19903  HIT:      19860  MISS:         43  HIT %:     99.784  MISS %:   0.216048   MPKI: 0.00086
PSCL3 LOAD TRANSLATION ACCESS:      19523  HIT:      19480  MISS:         43  HIT %:    99.7797  MISS %:   0.220253   MPKI: 0.00086
PSCL3 TRANSLATION FROM L1D PREFETCHER ACCESS:        380  HIT:        380  MISS:          0  HIT %:        100  MISS %:          0   MPKI: 0
PSCL3 PREFETCH  REQUESTED:          0  ISSUED:          0  USEFUL:          0  USELESS:          0
PSCL3 USEFUL LOAD PREFETCHES:          0 PREFETCH ISSUED TO LOWER LEVEL:          0  ACCURACY: -nan
PSCL3 TIMELY PREFETCHES:          0 LATE PREFETCHES: 0 DROPPED PREFETCHES: 0
PSCL3 PREFETCHES SAME FILL-ORIGIN LEVEL: 0 DIFFERENT FILL-ORIGIN LEVEL: 0

PSCL2 TOTAL     ACCESS:      20341  HIT:      18859  MISS:       1482  HIT %:    92.7142  MISS %:    7.28578   MPKI: 0.02964
PSCL2 LOAD TRANSLATION ACCESS:      20092  HIT:      18610  MISS:       1482  HIT %:    92.6239  MISS %:    7.37607   MPKI: 0.02964
PSCL2 TRANSLATION FROM L1D PREFETCHER ACCESS:        249  HIT:        249  MISS:          0  HIT %:        100  MISS %:          0   MPKI: 0
PSCL2 PREFETCH  REQUESTED:          0  ISSUED:          0  USEFUL:          0  USELESS:          0
PSCL2 USEFUL LOAD PREFETCHES:          0 PREFETCH ISSUED TO LOWER LEVEL:          0  ACCURACY: -nan
PSCL2 TIMELY PREFETCHES:          0 LATE PREFETCHES: 0 DROPPED PREFETCHES: 0
PSCL2 PREFETCHES SAME FILL-ORIGIN LEVEL: 0 DIFFERENT FILL-ORIGIN LEVEL: 0

LLC TOTAL     ACCESS:    2876754  HIT:    1328233  MISS:    1548521  HIT %:    46.1712  MISS %:    53.8288   MPKI: 30.9704
LLC LOAD      ACCESS:     346297  HIT:     278981  MISS:      67316  HIT %:    80.5612  MISS %:    19.4388   MPKI: 1.34632
LLC RFO       ACCESS:     958128  HIT:     240105  MISS:     718023  HIT %:    25.0598  MISS %:    74.9402   MPKI: 14.3605
LLC PREFETCH  ACCESS:     467757  HIT:     190374  MISS:     277383  HIT %:    40.6993  MISS %:    59.3007   MPKI: 5.54766
LLC WRITEBACK ACCESS:    1095238  HIT:     615203  MISS:     480035  HIT %:    56.1707  MISS %:    43.8293   MPKI: 9.6007
LLC LOAD TRANSLATION ACCESS:       8888  HIT:       3402  MISS:       5486  HIT %:    38.2763  MISS %:    61.7237   MPKI: 0.10972
LLC TRANSLATION FROM L1D PREFETCHER ACCESS:        446  HIT:        168  MISS:        278  HIT %:    37.6682  MISS %:    62.3318   MPKI: 0.00556
LLC PREFETCH  REQUESTED:          0  ISSUED:          0  USEFUL:        990  USELESS:     276659
LLC USEFUL LOAD PREFETCHES:        990 PREFETCH ISSUED TO LOWER LEVEL:     277383  ACCURACY: 0.356907
LLC TIMELY PREFETCHES:        990 LATE PREFETCHES: 0 DROPPED PREFETCHES: 0
LLC PREFETCHES SAME FILL-ORIGIN LEVEL: 0 DIFFERENT FILL-ORIGIN LEVEL: 0
LLC AVERAGE MISS LATENCY: 162.831 cycles
LLC RQ	ACCESS:    1313761	FORWARD:          0	MERGED:          0	TO_CACHE:    1313759
LLC WQ	ACCESS:    1095238	FORWARD:          2	MERGED:          0	TO_CACHE:    1095238
LLC PQ	ACCESS:     467757	FORWARD:          0	MERGED:          0	TO_CACHE:     467757

LLC Dense regions hint to LLC: 0

RAW hits: 1390672
Loads Generated: 12465612
Loads sent to L1D: 11074940
Stores Generated: 8864282
Stores sent to L1D: 8864293
Major fault: 0 Minor fault: 22424
Allocated PAGES: 22424
I-Shadow cache 408 bytes
Touched + WorthPF tables 6144 bytes 
MMA filter 174 bytes 
FNL filter 272 bytes 
TOTAL PREFETCHER STORAGE SIZE: 25174 bytes
CPU 0 L1I next line prefetcher final stats
[Bingo] PHT Access: 42294
[Bingo] PHT Hit PC+Addr: 15875
[Bingo] PHT Hit PC+Offs: 17771
[Bingo] PHT Miss: 8648
[Bingo] Prefetch PC+Addr: 0
[Bingo] Prefetch PC+Offs: 0
[Bingo] Useful PC+Addr: 0
[Bingo] Useful PC+Offs: 0
[Bingo] Useless PC+Addr: 0
[Bingo] Useless PC+Offs: 0
[Bingo] L1 Prefetch per Region: 0
[Bingo] L2 Prefetch per Region: 12.0756
[Bingo] L3 Prefetch per Region: 0
[Bingo] No Prefetch per Region: 19.9244
[Bingo] Number of Voters Mean: 10.7892
[Bingo] Number of Voters SD: 9.34406
PHT read accesses: 354691
PHT write accesses: 21753
AT read accesses: 363343
AT write accesses: 363353
FT read accesses: 91165
FT write accesses: 42294
PS read accesses: 78943
PS write accesses: 33646
PHT tag read accesses: 1042008
PHT tag write accesses: 37628
AT tag read accesses: 36524678
AT tag write accesses: 385106
FT tag read accesses: 31950841
FT tag write accesses: 107251
PS tag read accesses: 7328165
PS tag write accesses: 112547

DRAM Statistics
 CHANNEL 0
 RQ ROW_BUFFER_HIT:     569289  ROW_BUFFER_MISS:     499167
 DBUS_CONGESTED:        508
 WQ ROW_BUFFER_HIT:     164722  ROW_BUFFER_MISS:     575478  FULL:      11075

 AVG_CONGESTED_CYCLE: 3
 All warmup complete: 2
Channel 0 Bank busy for read cycles: 0
Channel 0 Bank busy for write cycles: 0
Channel 0
Rank 0
0banks busy for read cycles: 36958845
0banks busy for write cycles: 64343
1banks busy for read cycles: 13177655
1banks busy for write cycles: 9143384
2banks busy for read cycles: 4633617
2banks busy for write cycles: 3592741
3banks busy for read cycles: 1184333
3banks busy for write cycles: 1770463
4banks busy for read cycles: 1712021
4banks busy for write cycles: 1243840
5banks busy for read cycles: 627125
5banks busy for write cycles: 1072626
6banks busy for read cycles: 804045
6banks busy for write cycles: 1053724
7banks busy for read cycles: 1467859
7banks busy for write cycles: 1655886
8banks busy for read cycles: 6738079
8banks busy for write cycles: 9078562

CPU 0 Branch Prediction Accuracy: 99.8303% MPKI: 0.27836 Average ROB Occupancy at Mispredict: 114.715
Branch types
NOT_BRANCH: 41798375 83.5967%
BRANCH_DIRECT_JUMP: 445212 0.890424%
BRANCH_INDIRECT: 50481 0.100962%
BRANCH_CONDITIONAL: 5868224 11.7364%
BRANCH_DIRECT_CALL: 758223 1.51645%
BRANCH_INDIRECT_CALL: 160492 0.320984%
BRANCH_RETURN: 918715 1.83743%
BRANCH_OTHER: 0 0%

DRAM PAGES: 1048576
Allocated PAGES: 22424
