
*** ChampSim Multicore Out-of-Order Simulator ***

Warmup Instructions: 50000000
Simulation Instructions: 50000000
Number of CPUs: 1
LLC sets: 2048
LLC ways: 16
Off-chip DRAM Size: 4096 MB Channels: 1 Width: 64-bit Data Rate: 6400 MT/s
CPU 0 runs ../IPC-traces//server_017.champsimtrace.xz
.xz
NUM_OF_IPS_IN_CRITICAL_IP_TRAINING: 64
NUM_OF_CRITICAL_IP_TRAINING_TABLE_WAYS: 2
NUM_OF_CRITICAL_IP_TRAINING_TABLE_SETS: 32
WOBBLY_CRITICAL_IP_CACHE_SETS: 32
WOBBLY_CRITICAL_IP_CACHE_WAYS: 4
BTB has LRU replacement policy
ITLB has LRU replacement policy
DTLB has LRU replacement policy
STLB has LRU replacement policy
CPU 0 L1I next line prefetcher
L1I has LRU replacement policy
IP Table Entries: 64
L1D has LRU replacement policy
IP_Table L2 entries: 64
Initialize SRRIP state for L2C
Initialize DRRIP state for LLC
Heartbeat CPU 0 instructions: 10000000 cycles: 3143224 heartbeat IPC: 3.18145 cumulative IPC: 3.18145 (Simulation time: 0 hr 3 min 47 sec) 
Heartbeat CPU 0 instructions: 20000000 cycles: 6283153 heartbeat IPC: 3.18479 cumulative IPC: 3.18312 (Simulation time: 0 hr 7 min 5 sec) 
Heartbeat CPU 0 instructions: 30000002 cycles: 9432644 heartbeat IPC: 3.17512 cumulative IPC: 3.18044 (Simulation time: 0 hr 9 min 43 sec) 
Heartbeat CPU 0 instructions: 40000000 cycles: 12574052 heartbeat IPC: 3.18329 cumulative IPC: 3.18115 (Simulation time: 0 hr 12 min 19 sec) 
Heartbeat CPU 0 instructions: 50000000 cycles: 15730862 heartbeat IPC: 3.16775 cumulative IPC: 3.17847 (Simulation time: 0 hr 14 min 47 sec) 

Warmup complete CPU 0 instructions: 50000004 cycles: 15730863 (Simulation time: 0 hr 14 min 47 sec) 

% increase in all ip prefetch 400.157
% increase in all ip prefetch -15.1752
Heartbeat CPU 0 instructions: 60000000 cycles: 34489461 heartbeat IPC: 0.533089 cumulative IPC: 0.533089 (Simulation time: 0 hr 17 min 51 sec) 
Heartbeat CPU 0 instructions: 70000000 cycles: 53295158 heartbeat IPC: 0.531754 cumulative IPC: 0.53242 (Simulation time: 0 hr 20 min 54 sec) 
Heartbeat CPU 0 instructions: 80000000 cycles: 71973467 heartbeat IPC: 0.53538 cumulative IPC: 0.533403 (Simulation time: 0 hr 23 min 51 sec) 
Heartbeat CPU 0 instructions: 90000003 cycles: 97073498 heartbeat IPC: 0.398406 cumulative IPC: 0.491747 (Simulation time: 0 hr 27 min 43 sec) 
Heartbeat CPU 0 instructions: 100000003 cycles: 120650593 heartbeat IPC: 0.42414 cumulative IPC: 0.476555 (Simulation time: 0 hr 32 min 3 sec) 
Finished CPU 0 instructions: 50000003 cycles: 104919747 cumulative IPC: 0.476555 (Simulation time: 0 hr 32 min 3 sec) 

ChampSim completed all CPUs

Region of Interest Statistics

CPU 0 cumulative IPC: 0.476555 instructions: 50000003 cycles: 104919747

CPU 0 Average Load ROB stall cycles: 8.20636e+06
CPU 0 Fraction of times ROB stalled by Loads: 12.9866
CPU 0 Percentage of Load stall cycles in Total stall cycles: 8.95545e+07
 Total stall cycles: 47463706
 Total load stall cycles: 42505872570080
CPU 0 NUM of IPS identified critical: 6
CPU 0 Num of Load IPs stalling ROB: 2185
Threshold modification factor: -1
Max PIST entries: 64
Min PIST entries: 0
Avg PIST entries: 29.91
Trouble in retire width: 0.854637
MaC = Marked as critical.
lt_50_percent_before_Mac: 6
gt_90_percent_before_Mac: 0
gt_75_percent_before_Mac: 0
gt_50_percent_before_Mac: 0
stall_proportion_bin_same_before_after: 0
stall_proportion_bin_lower_before_after: 0
stall_proportion_bin_upper_before_after: 0
average_stall_proportion_before: 0.127869
average_stall_proportion_after: 0.136022
Critical IP stalls, total frequency: 270710
Non-critical IP stalls, total frequency: 387958
Critical_IP_ROB_Stalls_Bucket_0: 8205
Non-critical_IP_ROB_Stalls_Bucket_0: 163985
Critical_IP_ROB_Stalls_Bucket_1: 28343
Non-critical_IP_ROB_Stalls_Bucket_1: 112451
Critical_IP_ROB_Stalls_Bucket_2: 39063
Non-critical_IP_ROB_Stalls_Bucket_2: 59994
Critical_IP_ROB_Stalls_Bucket_3: 47182
Non-critical_IP_ROB_Stalls_Bucket_3: 20078
Critical_IP_ROB_Stalls_Bucket_4: 34171
Non-critical_IP_ROB_Stalls_Bucket_4: 8746
Critical_IP_ROB_Stalls_Bucket_5: 36359
Non-critical_IP_ROB_Stalls_Bucket_5: 9809
Critical_IP_ROB_Stalls_Bucket_6: 77387
Non-critical_IP_ROB_Stalls_Bucket_6: 26886
0 => IPs accounting for >50 percent of stalls, 1 => 55, 2 => 60, 3 => 65 and so on till 90.
percent50: 50.1215 num IPs:15
percent55: 55.2069 num IPs:30
percent60: 60.0518 num IPs:46
percent65: 65.2614 num IPs:65
percent70: 70.1645 num IPs:85
percent75: 75.0375 num IPs:108
percent80: 80.0083 num IPs:137
percent85: 85.0723 num IPs:180
percent90: 90.0039 num IPs:262
Critical_ROB_Stalls_Percent_0_Bucket_0: 35689
Non-critical_ROB_Stalls_Percent_0_Bucket_0: 136501
Critical_ROB_Stalls_Percent_0_Bucket_1: 47367
Non-critical_ROB_Stalls_Percent_0_Bucket_1: 93427
Critical_ROB_Stalls_Percent_0_Bucket_2: 45161
Non-critical_ROB_Stalls_Percent_0_Bucket_2: 53896
Critical_ROB_Stalls_Percent_0_Bucket_3: 46696
Non-critical_ROB_Stalls_Percent_0_Bucket_3: 20564
Critical_ROB_Stalls_Percent_0_Bucket_4: 34616
Non-critical_ROB_Stalls_Percent_0_Bucket_4: 8301
Critical_ROB_Stalls_Percent_0_Bucket_5: 39488
Non-critical_ROB_Stalls_Percent_0_Bucket_5: 6680
Critical_ROB_Stalls_Percent_0_Bucket_6: 81117
Non-critical_ROB_Stalls_Percent_0_Bucket_6: 23156
Critical_ROB_Stalls_Percent_1_Bucket_0: 41981
Non-critical_ROB_Stalls_Percent_1_Bucket_0: 130209
Critical_ROB_Stalls_Percent_1_Bucket_1: 57750
Non-critical_ROB_Stalls_Percent_1_Bucket_1: 83044
Critical_ROB_Stalls_Percent_1_Bucket_2: 50977
Non-critical_ROB_Stalls_Percent_1_Bucket_2: 48080
Critical_ROB_Stalls_Percent_1_Bucket_3: 50178
Non-critical_ROB_Stalls_Percent_1_Bucket_3: 17082
Critical_ROB_Stalls_Percent_1_Bucket_4: 35340
Non-critical_ROB_Stalls_Percent_1_Bucket_4: 7577
Critical_ROB_Stalls_Percent_1_Bucket_5: 40891
Non-critical_ROB_Stalls_Percent_1_Bucket_5: 5277
Critical_ROB_Stalls_Percent_1_Bucket_6: 86513
Non-critical_ROB_Stalls_Percent_1_Bucket_6: 17760
Critical_ROB_Stalls_Percent_2_Bucket_0: 59041
Non-critical_ROB_Stalls_Percent_2_Bucket_0: 113149
Critical_ROB_Stalls_Percent_2_Bucket_1: 65161
Non-critical_ROB_Stalls_Percent_2_Bucket_1: 75633
Critical_ROB_Stalls_Percent_2_Bucket_2: 56416
Non-critical_ROB_Stalls_Percent_2_Bucket_2: 42641
Critical_ROB_Stalls_Percent_2_Bucket_3: 52175
Non-critical_ROB_Stalls_Percent_2_Bucket_3: 15085
Critical_ROB_Stalls_Percent_2_Bucket_4: 35342
Non-critical_ROB_Stalls_Percent_2_Bucket_4: 7575
Critical_ROB_Stalls_Percent_2_Bucket_5: 40892
Non-critical_ROB_Stalls_Percent_2_Bucket_5: 5276
Critical_ROB_Stalls_Percent_2_Bucket_6: 86515
Non-critical_ROB_Stalls_Percent_2_Bucket_6: 17758
Critical_ROB_Stalls_Percent_3_Bucket_0: 69125
Non-critical_ROB_Stalls_Percent_3_Bucket_0: 103065
Critical_ROB_Stalls_Percent_3_Bucket_1: 77603
Non-critical_ROB_Stalls_Percent_3_Bucket_1: 63191
Critical_ROB_Stalls_Percent_3_Bucket_2: 64369
Non-critical_ROB_Stalls_Percent_3_Bucket_2: 34688
Critical_ROB_Stalls_Percent_3_Bucket_3: 53581
Non-critical_ROB_Stalls_Percent_3_Bucket_3: 13679
Critical_ROB_Stalls_Percent_3_Bucket_4: 35639
Non-critical_ROB_Stalls_Percent_3_Bucket_4: 7278
Critical_ROB_Stalls_Percent_3_Bucket_5: 41212
Non-critical_ROB_Stalls_Percent_3_Bucket_5: 4956
Critical_ROB_Stalls_Percent_3_Bucket_6: 88327
Non-critical_ROB_Stalls_Percent_3_Bucket_6: 15946
Critical_ROB_Stalls_Percent_4_Bucket_0: 84923
Non-critical_ROB_Stalls_Percent_4_Bucket_0: 87267
Critical_ROB_Stalls_Percent_4_Bucket_1: 83877
Non-critical_ROB_Stalls_Percent_4_Bucket_1: 56917
Critical_ROB_Stalls_Percent_4_Bucket_2: 70589
Non-critical_ROB_Stalls_Percent_4_Bucket_2: 28468
Critical_ROB_Stalls_Percent_4_Bucket_3: 54350
Non-critical_ROB_Stalls_Percent_4_Bucket_3: 12910
Critical_ROB_Stalls_Percent_4_Bucket_4: 37044
Non-critical_ROB_Stalls_Percent_4_Bucket_4: 5873
Critical_ROB_Stalls_Percent_4_Bucket_5: 41536
Non-critical_ROB_Stalls_Percent_4_Bucket_5: 4632
Critical_ROB_Stalls_Percent_4_Bucket_6: 89832
Non-critical_ROB_Stalls_Percent_4_Bucket_6: 14441
Critical_ROB_Stalls_Percent_5_Bucket_0: 100738
Non-critical_ROB_Stalls_Percent_5_Bucket_0: 71452
Critical_ROB_Stalls_Percent_5_Bucket_1: 92090
Non-critical_ROB_Stalls_Percent_5_Bucket_1: 48704
Critical_ROB_Stalls_Percent_5_Bucket_2: 73497
Non-critical_ROB_Stalls_Percent_5_Bucket_2: 25560
Critical_ROB_Stalls_Percent_5_Bucket_3: 55511
Non-critical_ROB_Stalls_Percent_5_Bucket_3: 11749
Critical_ROB_Stalls_Percent_5_Bucket_4: 37741
Non-critical_ROB_Stalls_Percent_5_Bucket_4: 5176
Critical_ROB_Stalls_Percent_5_Bucket_5: 42696
Non-critical_ROB_Stalls_Percent_5_Bucket_5: 3472
Critical_ROB_Stalls_Percent_5_Bucket_6: 91975
Non-critical_ROB_Stalls_Percent_5_Bucket_6: 12298
Critical_ROB_Stalls_Percent_6_Bucket_0: 117156
Non-critical_ROB_Stalls_Percent_6_Bucket_0: 55034
Critical_ROB_Stalls_Percent_6_Bucket_1: 98807
Non-critical_ROB_Stalls_Percent_6_Bucket_1: 41987
Critical_ROB_Stalls_Percent_6_Bucket_2: 77242
Non-critical_ROB_Stalls_Percent_6_Bucket_2: 21815
Critical_ROB_Stalls_Percent_6_Bucket_3: 57280
Non-critical_ROB_Stalls_Percent_6_Bucket_3: 9980
Critical_ROB_Stalls_Percent_6_Bucket_4: 37967
Non-critical_ROB_Stalls_Percent_6_Bucket_4: 4950
Critical_ROB_Stalls_Percent_6_Bucket_5: 42914
Non-critical_ROB_Stalls_Percent_6_Bucket_5: 3254
Critical_ROB_Stalls_Percent_6_Bucket_6: 95623
Non-critical_ROB_Stalls_Percent_6_Bucket_6: 8650
Critical_ROB_Stalls_Percent_7_Bucket_0: 132542
Non-critical_ROB_Stalls_Percent_7_Bucket_0: 39648
Critical_ROB_Stalls_Percent_7_Bucket_1: 105953
Non-critical_ROB_Stalls_Percent_7_Bucket_1: 34841
Critical_ROB_Stalls_Percent_7_Bucket_2: 81678
Non-critical_ROB_Stalls_Percent_7_Bucket_2: 17379
Critical_ROB_Stalls_Percent_7_Bucket_3: 59030
Non-critical_ROB_Stalls_Percent_7_Bucket_3: 8230
Critical_ROB_Stalls_Percent_7_Bucket_4: 39839
Non-critical_ROB_Stalls_Percent_7_Bucket_4: 3078
Critical_ROB_Stalls_Percent_7_Bucket_5: 43142
Non-critical_ROB_Stalls_Percent_7_Bucket_5: 3026
Critical_ROB_Stalls_Percent_7_Bucket_6: 98160
Non-critical_ROB_Stalls_Percent_7_Bucket_6: 6113
Critical_ROB_Stalls_Percent_8_Bucket_0: 145117
Non-critical_ROB_Stalls_Percent_8_Bucket_0: 27073
Critical_ROB_Stalls_Percent_8_Bucket_1: 115999
Non-critical_ROB_Stalls_Percent_8_Bucket_1: 24795
Critical_ROB_Stalls_Percent_8_Bucket_2: 85637
Non-critical_ROB_Stalls_Percent_8_Bucket_2: 13420
Critical_ROB_Stalls_Percent_8_Bucket_3: 62022
Non-critical_ROB_Stalls_Percent_8_Bucket_3: 5238
Critical_ROB_Stalls_Percent_8_Bucket_4: 40544
Non-critical_ROB_Stalls_Percent_8_Bucket_4: 2373
Critical_ROB_Stalls_Percent_8_Bucket_5: 43948
Non-critical_ROB_Stalls_Percent_8_Bucket_5: 2220
Critical_ROB_Stalls_Percent_8_Bucket_6: 99560
Non-critical_ROB_Stalls_Percent_8_Bucket_6: 4713
Average ROB occupancy Load Stall Begin: 136.478
Average ROB occupancy Load Stall End: 144.627
Min ROB occupancy Load Stall Begin: 1
Max ROB occupancy Load Stall Begin: 351
Min ROB occupancy Load Stall End: 1
Max ROB occupancy Load Stall End: 352
Average ROB occupancy Critical Load Stall Begin: 216.863
Average ROB occupancy Critical Load Stall End: 223.491
Min ROB occupancy Critical Load Stall Begin: 8
Max ROB occupancy Critical Load Stall Begin: 351
Min ROB occupancy Critical Load Stall End: 8
Max ROB occupancy Critical Load Stall End: 352
 ROB Load Stall Begin Bucket Count 0: 206461
 ROB Load Stall End Bucket Count 0: 172190
 ROB Critical Load Stall Begin Bucket Count 0: 9299
 ROB Critical Load Stall End Bucket Count 0: 6280
 ROB Load Stall Begin Bucket Count 1: 133798
 ROB Load Stall End Bucket Count 1: 140794
 ROB Critical Load Stall Begin Bucket Count 1: 29818
 ROB Critical Load Stall End Bucket Count 1: 25887
 ROB Load Stall Begin Bucket Count 2: 90842
 ROB Load Stall End Bucket Count 2: 99057
 ROB Critical Load Stall Begin Bucket Count 2: 40336
 ROB Critical Load Stall End Bucket Count 2: 38545
 ROB Load Stall Begin Bucket Count 3: 58261
 ROB Load Stall End Bucket Count 3: 67260
 ROB Critical Load Stall Begin Bucket Count 3: 40566
 ROB Critical Load Stall End Bucket Count 3: 44230
 ROB Load Stall Begin Bucket Count 4: 40447
 ROB Load Stall End Bucket Count 4: 42917
 ROB Critical Load Stall Begin Bucket Count 4: 33380
 ROB Critical Load Stall End Bucket Count 4: 33973
 ROB Load Stall Begin Bucket Count 5: 45607
 ROB Load Stall End Bucket Count 5: 46168
 ROB Critical Load Stall Begin Bucket Count 5: 34553
 ROB Critical Load Stall End Bucket Count 5: 36053
 ROB Load Stall Begin Bucket Count 6: 97243
 ROB Load Stall End Bucket Count 6: 104273
 ROB Critical Load Stall Begin Bucket Count 6: 74180
 ROB Critical Load Stall End Bucket Count 6: 77164
PIST Tag Read Accesses: 312000
PIST Read Accesses: 156000
PIST Tag Write Accesses: 312000
PIST Write Accesses: 156000
Criticality detector called times: 226370
Max global_stall_cycles_count: 490176
Threshold Modified: 1 times, factor: -1
ITLB TOTAL     ACCESS:   10002468  HIT:    9578699  MISS:     423769  HIT %:    95.7634  MISS %:    4.23664   MPKI: 8.47538
ITLB LOAD TRANSLATION ACCESS:    8281390  HIT:    8271809  MISS:       9581  HIT %:    99.8843  MISS %:   0.115693   MPKI: 0.19162
ITLB TRANSLATION FROM L1D PREFETCHER ACCESS:    1721078  HIT:    1306890  MISS:     414188  HIT %:    75.9344  MISS %:    24.0656   MPKI: 8.28376
ITLB PREFETCH  REQUESTED:          0  ISSUED:          0  USEFUL:     374198  USELESS:      39987
ITLB USEFUL LOAD PREFETCHES:     374198 PREFETCH ISSUED TO LOWER LEVEL:          0  ACCURACY: inf
ITLB TIMELY PREFETCHES:     374198 LATE PREFETCHES: 400 DROPPED PREFETCHES: 89
ITLB PREFETCHES SAME FILL-ORIGIN LEVEL: 0 DIFFERENT FILL-ORIGIN LEVEL: 0
ITLB AVERAGE MISS LATENCY: 57006.8 cycles
ITLB RQ	ACCESS:   14144905	FORWARD:          0	MERGED:    4091179	TO_CACHE:   10053726

DTLB TOTAL     ACCESS:   10648050  HIT:   10208076  MISS:     439974  HIT %:     95.868  MISS %:    4.13197   MPKI: 8.79948
DTLB LOAD TRANSLATION ACCESS:   10648050  HIT:   10208076  MISS:     439974  HIT %:     95.868  MISS %:    4.13197   MPKI: 8.79948
DTLB PREFETCH  REQUESTED:          0  ISSUED:          0  USEFUL:          0  USELESS:          0
DTLB USEFUL LOAD PREFETCHES:          0 PREFETCH ISSUED TO LOWER LEVEL:          0  ACCURACY: -nan
DTLB TIMELY PREFETCHES:          0 LATE PREFETCHES: 0 DROPPED PREFETCHES: 0
DTLB PREFETCHES SAME FILL-ORIGIN LEVEL: 0 DIFFERENT FILL-ORIGIN LEVEL: 0
DTLB AVERAGE MISS LATENCY: 24.594 cycles
DTLB RQ	ACCESS:   15453992	FORWARD:          0	MERGED:    4727160	TO_CACHE:   10726832

STLB TOTAL     ACCESS:    1513912  HIT:    1450491  MISS:      63421  HIT %:    95.8108  MISS %:    4.18921   MPKI: 1.26842
STLB LOAD TRANSLATION ACCESS:     449155  HIT:     386757  MISS:      62398  HIT %:    86.1077  MISS %:    13.8923   MPKI: 1.24796
STLB TRANSLATION FROM L1D PREFETCHER ACCESS:    1064757  HIT:    1063734  MISS:       1023  HIT %:    99.9039  MISS %:  0.0960783   MPKI: 0.02046
STLB PREFETCH  REQUESTED:          0  ISSUED:          0  USEFUL:        760  USELESS:        262
STLB USEFUL LOAD PREFETCHES:        760 PREFETCH ISSUED TO LOWER LEVEL:          0  ACCURACY: inf
STLB TIMELY PREFETCHES:        760 LATE PREFETCHES: 0 DROPPED PREFETCHES: 89
STLB PREFETCHES SAME FILL-ORIGIN LEVEL: 0 DIFFERENT FILL-ORIGIN LEVEL: 0
STLB AVERAGE MISS LATENCY: 113.447 cycles
STLB RQ	ACCESS:    1582800	FORWARD:          0	MERGED:      68799	TO_CACHE:    1514001

STLB Hit, L1D data hit: 0
STLB Hit, L2C data hit: 0
STLB Hit, LLC data hit: 0
STLB Hit, LLC data miss: 0
STLB STLB hints to L2: 0
L1D TOTAL     ACCESS:   13860123  HIT:   12000222  MISS:    1859901  HIT %:    86.5809  MISS %:    13.4191   MPKI: 37.198
L1D LOAD      ACCESS:    7346500  HIT:    6738344  MISS:     608156  HIT %:    91.7218  MISS %:    8.27817   MPKI: 12.1631
L1D RFO       ACCESS:    5856727  HIT:    4985200  MISS:     871527  HIT %:    85.1192  MISS %:    14.8808   MPKI: 17.4305
L1D PREFETCH  ACCESS:     656896  HIT:     276678  MISS:     380218  HIT %:     42.119  MISS %:     57.881   MPKI: 7.60436
L1D PREFETCH  REQUESTED:    1437950  ISSUED:    1437949  USEFUL:     264913  USELESS:     115290
L1D USEFUL LOAD PREFETCHES:     264913 PREFETCH ISSUED TO LOWER LEVEL:     425470  ACCURACY: 62.2636
L1D TIMELY PREFETCHES:     264913 LATE PREFETCHES: 45239 DROPPED PREFETCHES: 0
L1D PREFETCHES SAME FILL-ORIGIN LEVEL: 425470 DIFFERENT FILL-ORIGIN LEVEL: 0
L1D AVERAGE MISS LATENCY: 1.57534e+06 cycles
L1D RQ	ACCESS:   10805571	FORWARD:          0	MERGED:    3318710	TO_CACHE:    7375687
L1D WQ	ACCESS:    8175288	FORWARD:     111187	MERGED:      96983	TO_CACHE:    8078305
L1D PQ	ACCESS:     718981	FORWARD:          0	MERGED:          0	TO_CACHE:     718968

L1D UNIQUE REGIONS ACCESSED: 0
L1D REGIONS CONFLICTS: 0
L1D Cross Page Prefetch Requests: 0
L1D Same Page Prefetch Requests: 1391154
L1D ROI Sum of L1D PQ occupancy: 10505151
L1D PREFETCHES PUSHED FROM L2C: 0
L1I TOTAL     ACCESS:   14073056  HIT:   11241985  MISS:    2831071  HIT %:     79.883  MISS %:     20.117   MPKI: 56.6214
L1I LOAD      ACCESS:    9643483  HIT:    9622818  MISS:      20665  HIT %:    99.7857  MISS %:    0.21429   MPKI: 0.4133
L1I PREFETCH  ACCESS:    4429573  HIT:    1619167  MISS:    2810406  HIT %:    36.5536  MISS %:    63.4464   MPKI: 56.2081
L1I PREFETCH  REQUESTED:    4652591  ISSUED:    4646295  USEFUL:    2352712  USELESS:     457665
L1I USEFUL LOAD PREFETCHES:    2352712 PREFETCH ISSUED TO LOWER LEVEL:    2818219  ACCURACY: 83.4822
L1I TIMELY PREFETCHES:    2352712 LATE PREFETCHES: 7762 DROPPED PREFETCHES: 155
L1I PREFETCHES SAME FILL-ORIGIN LEVEL: 2818219 DIFFERENT FILL-ORIGIN LEVEL: 0
L1I AVERAGE MISS LATENCY: 193317 cycles
L1I RQ	ACCESS:   13966615	FORWARD:          0	MERGED:    4318672	TO_CACHE:    9647943
L1I PQ	ACCESS:    4646295	FORWARD:          0	MERGED:     149333	TO_CACHE:    4496962

BTB TOTAL     ACCESS:    5420737  HIT:    5179354  MISS:     241383  HIT %:     95.547  MISS %:    4.45296   MPKI: 4.82766
BTB BRANCH_DIRECT_JUMP	ACCESS:     464500  HIT:     462787  MISS:       1713
BTB BRANCH_INDIRECT	ACCESS:      45704  HIT:      45540  MISS:        164
BTB BRANCH_CONDITIONAL	ACCESS:    3156565  HIT:    3151071  MISS:       5494
BTB BRANCH_DIRECT_CALL	ACCESS:     675450  HIT:     671839  MISS:       3611
BTB BRANCH_INDIRECT_CALL	ACCESS:     201532  HIT:     175397  MISS:      26135
BTB BRANCH_RETURN	ACCESS:     876986  HIT:     672720  MISS:     204266
BTB BRANCH_OTHER ACCESS:          0  HIT:          0  MISS:          0

L2C TOTAL     ACCESS:    7560938  HIT:    5525858  MISS:    2035080  HIT %:    73.0843  MISS %:    26.9157   MPKI: 40.7016
L2C LOAD      ACCESS:     575806  HIT:     219909  MISS:     355897  HIT %:    38.1915  MISS %:    61.8085   MPKI: 7.11794
L2C DATA LOAD MPKI: 7.02496
L2C INSTRUCTION LOAD MPKI: 0.09298
L2C RFO       ACCESS:     871510  HIT:      32636  MISS:     838874  HIT %:    3.74476  MISS %:    96.2552   MPKI: 16.7775
L2C PREFETCH  ACCESS:    4913059  HIT:    4156015  MISS:     757044  HIT %:    84.5912  MISS %:    15.4088   MPKI: 15.1409
L2C DATA PREFETCH MPKI: 12.4208
L2C INSTRUCTION PREFETCH MPKI: 2.72008
L2C WRITEBACK ACCESS:    1111680  HIT:    1060076  MISS:      51604  HIT %:     95.358  MISS %:    4.64198   MPKI: 1.03208
L2C LOAD TRANSLATION ACCESS:      87235  HIT:      56606  MISS:      30629  HIT %:    64.8891  MISS %:    35.1109   MPKI: 0.61258
L2C TRANSLATION FROM L1D PREFETCHER ACCESS:       1648  HIT:        616  MISS:       1032  HIT %:    37.3786  MISS %:    62.6214   MPKI: 0.02064
L2C PREFETCH  REQUESTED:    3515239  ISSUED:    3514713  USEFUL:      76875  USELESS:     682402
L2C USEFUL LOAD PREFETCHES:      76875 PREFETCH ISSUED TO LOWER LEVEL:     765541  ACCURACY: 10.0419
L2C TIMELY PREFETCHES:      76875 LATE PREFETCHES: 8495 DROPPED PREFETCHES: 0
L2C PREFETCHES SAME FILL-ORIGIN LEVEL: 474974 DIFFERENT FILL-ORIGIN LEVEL: 0
L2C AVERAGE MISS LATENCY: 160.068 cycles
L2C RQ	ACCESS:    1536220	FORWARD:          0	MERGED:          0	TO_CACHE:    1536202
L2C WQ	ACCESS:    1111681	FORWARD:         19	MERGED:          0	TO_CACHE:    1111681
L2C PQ	ACCESS:    6758349	FORWARD:          0	MERGED:    1616713	TO_CACHE:    5141635

L2C Instructions Evicting Data 127791
L2C Translations Evicting Data 28568
L2C Data Evicting Data 1658591
L2C Instructions Evicting Instructions 10345
L2C Translations Evicting Instructions 2660
L2C Data Evicting Instructions 124575
L2C Instructions Evicting Translations 2517
L2C Translations Evicting Translations 433
L2C Data Evicting Translations 27996
L2C Dense regions hint from L2: 0
PSCL5 TOTAL     ACCESS:      63510  HIT:      63510  MISS:          0  HIT %:        100  MISS %:          0   MPKI: 0
PSCL5 LOAD TRANSLATION ACCESS:      62398  HIT:      62398  MISS:          0  HIT %:        100  MISS %:          0   MPKI: 0
PSCL5 TRANSLATION FROM L1D PREFETCHER ACCESS:       1112  HIT:       1112  MISS:          0  HIT %:        100  MISS %:          0   MPKI: 0
PSCL5 PREFETCH  REQUESTED:          0  ISSUED:          0  USEFUL:          0  USELESS:          0
PSCL5 USEFUL LOAD PREFETCHES:          0 PREFETCH ISSUED TO LOWER LEVEL:          0  ACCURACY: -nan
PSCL5 TIMELY PREFETCHES:          0 LATE PREFETCHES: 0 DROPPED PREFETCHES: 0
PSCL5 PREFETCHES SAME FILL-ORIGIN LEVEL: 0 DIFFERENT FILL-ORIGIN LEVEL: 0

PSCL4 TOTAL     ACCESS:      35750  HIT:      35624  MISS:        126  HIT %:    99.6476  MISS %:   0.352448   MPKI: 0.00252
PSCL4 LOAD TRANSLATION ACCESS:      34797  HIT:      34671  MISS:        126  HIT %:    99.6379  MISS %:     0.3621   MPKI: 0.00252
PSCL4 TRANSLATION FROM L1D PREFETCHER ACCESS:        953  HIT:        953  MISS:          0  HIT %:        100  MISS %:          0   MPKI: 0
PSCL4 PREFETCH  REQUESTED:          0  ISSUED:          0  USEFUL:          0  USELESS:          0
PSCL4 USEFUL LOAD PREFETCHES:          0 PREFETCH ISSUED TO LOWER LEVEL:          0  ACCURACY: -nan
PSCL4 TIMELY PREFETCHES:          0 LATE PREFETCHES: 0 DROPPED PREFETCHES: 0
PSCL4 PREFETCHES SAME FILL-ORIGIN LEVEL: 0 DIFFERENT FILL-ORIGIN LEVEL: 0

PSCL3 TOTAL     ACCESS:      63258  HIT:      62775  MISS:        483  HIT %:    99.2365  MISS %:    0.76354   MPKI: 0.00966
PSCL3 LOAD TRANSLATION ACCESS:      62289  HIT:      61806  MISS:        483  HIT %:    99.2246  MISS %:   0.775418   MPKI: 0.00966
PSCL3 TRANSLATION FROM L1D PREFETCHER ACCESS:        969  HIT:        969  MISS:          0  HIT %:        100  MISS %:          0   MPKI: 0
PSCL3 PREFETCH  REQUESTED:          0  ISSUED:          0  USEFUL:          0  USELESS:          0
PSCL3 USEFUL LOAD PREFETCHES:          0 PREFETCH ISSUED TO LOWER LEVEL:          0  ACCURACY: -nan
PSCL3 TIMELY PREFETCHES:          0 LATE PREFETCHES: 0 DROPPED PREFETCHES: 0
PSCL3 PREFETCHES SAME FILL-ORIGIN LEVEL: 0 DIFFERENT FILL-ORIGIN LEVEL: 0

PSCL2 TOTAL     ACCESS:      63427  HIT:      38707  MISS:      24720  HIT %:    61.0261  MISS %:    38.9739   MPKI: 0.4944
PSCL2 LOAD TRANSLATION ACCESS:      62731  HIT:      38011  MISS:      24720  HIT %:    60.5936  MISS %:    39.4064   MPKI: 0.4944
PSCL2 TRANSLATION FROM L1D PREFETCHER ACCESS:        696  HIT:        696  MISS:          0  HIT %:        100  MISS %:          0   MPKI: 0
PSCL2 PREFETCH  REQUESTED:          0  ISSUED:          0  USEFUL:          0  USELESS:          0
PSCL2 USEFUL LOAD PREFETCHES:          0 PREFETCH ISSUED TO LOWER LEVEL:          0  ACCURACY: -nan
PSCL2 TIMELY PREFETCHES:          0 LATE PREFETCHES: 0 DROPPED PREFETCHES: 0
PSCL2 PREFETCHES SAME FILL-ORIGIN LEVEL: 0 DIFFERENT FILL-ORIGIN LEVEL: 0

LLC TOTAL     ACCESS:    3035647  HIT:    1171202  MISS:    1864445  HIT %:    38.5816  MISS %:    61.4184   MPKI: 37.2889
LLC LOAD      ACCESS:     348634  HIT:     194439  MISS:     154195  HIT %:    55.7717  MISS %:    44.2283   MPKI: 3.0839
LLC RFO       ACCESS:     837635  HIT:     199436  MISS:     638199  HIT %:    23.8094  MISS %:    76.1906   MPKI: 12.764
LLC PREFETCH  ACCESS:     765539  HIT:     342014  MISS:     423525  HIT %:    44.6762  MISS %:    55.3238   MPKI: 8.4705
LLC WRITEBACK ACCESS:    1052178  HIT:     420930  MISS:     631248  HIT %:    40.0056  MISS %:    59.9944   MPKI: 12.625
LLC LOAD TRANSLATION ACCESS:      30629  HIT:      14025  MISS:      16604  HIT %:    45.7899  MISS %:    54.2101   MPKI: 0.33208
LLC TRANSLATION FROM L1D PREFETCHER ACCESS:       1032  HIT:        358  MISS:        674  HIT %:    34.6899  MISS %:    65.3101   MPKI: 0.01348
LLC PREFETCH  REQUESTED:          0  ISSUED:          0  USEFUL:       1557  USELESS:     417546
LLC USEFUL LOAD PREFETCHES:       1557 PREFETCH ISSUED TO LOWER LEVEL:     423526  ACCURACY: 0.367628
LLC TIMELY PREFETCHES:       1557 LATE PREFETCHES: 0 DROPPED PREFETCHES: 0
LLC PREFETCHES SAME FILL-ORIGIN LEVEL: 0 DIFFERENT FILL-ORIGIN LEVEL: 0
LLC AVERAGE MISS LATENCY: 141.807 cycles
LLC RQ	ACCESS:    1217940	FORWARD:          0	MERGED:          0	TO_CACHE:    1217933
LLC WQ	ACCESS:    1052180	FORWARD:          7	MERGED:          0	TO_CACHE:    1052180
LLC PQ	ACCESS:     765541	FORWARD:          0	MERGED:          0	TO_CACHE:     765541

LLC Dense regions hint to LLC: 0

RAW hits: 1283030
Loads Generated: 12088598
Loads sent to L1D: 10805571
Stores Generated: 8175295
Stores sent to L1D: 8175288
Major fault: 0 Minor fault: 24906
Allocated PAGES: 24906
I-Shadow cache 408 bytes
Touched + WorthPF tables 6144 bytes 
MMA filter 174 bytes 
FNL filter 272 bytes 
TOTAL PREFETCHER STORAGE SIZE: 25174 bytes
CPU 0 L1I next line prefetcher final stats

stream: 
stream:times selected: 3674105
stream:pref_filled: 146835
stream:pref_useful: 26874
stream:pref_late: 6915
stream:misses: 32820
stream:misses_by_poll: 0

CS: 
CS:times selected: 3187878
CS:pref_filled: 573666
CS:pref_useful: 553868
CS:pref_late: 37458
CS:misses: 47478
CS:misses_by_poll: 358

CPLX: 
CPLX:times selected: 477298
CPLX:pref_filled: 29083
CPLX:pref_useful: 2083
CPLX:pref_late: 412
CPLX:misses: 93622
CPLX:misses_by_poll: 8

NL_L1: 
NL:times selected: 2685
NL:pref_filled: 805
NL:pref_useful: 36
NL:pref_late: 5
NL:misses: 1023
NL:misses_by_poll: 1

total selections: 7341966
total_filled: 380218
total_useful: 264913
total_late: 48265
total_polluted: 367
total_misses_after_warmup: 637344
conflicts: 2372541
Degree Incremented Times: 34046
Degree Decremented Times: 150511

L1 IP Table Write Accesses: 4818839
L1 IP Table Read Accesses: 2446298
L1 RST Write Accesses: 1835447
L1 RST Read Accesses: 3670894
L1 CSPT Write Accesses: 1835447
L1 CSPT Read Accesses: 2145469
L1 RR Filter Tag Write Accesses: 718982
L1 RR Filter Tag Read Accesses: 195948708
L1 IP Table Tag Write Accesses: 7375688
L1 IP Table Tag Read Accesses: 7375688
L1 RST Tag Write Accesses: 0
L1 RST Tag Read Accesses: 16759785
L1 RR Filter Write Accesses: 0
L1 RR Filter Read Accesses: 6371300
test: 289824
L2 IP Table Read Accesses: 3983185
L2 IP Table Write Accesses: 6995555
L2 IP Table Tag Read Accesses: 3593525
L2 IP Table Tag Write Accesses: 3593525

DRAM Statistics
 CHANNEL 0
 RQ ROW_BUFFER_HIT:     430934  ROW_BUFFER_MISS:     802164
 DBUS_CONGESTED:        665
 WQ ROW_BUFFER_HIT:     225059  ROW_BUFFER_MISS:     531042  FULL:      11137

 AVG_CONGESTED_CYCLE: 3
 All warmup complete: 2
Channel 0 Bank busy for read cycles: 0
Channel 0 Bank busy for write cycles: 0
Channel 0
Rank 0
0banks busy for read cycles: 20377943
0banks busy for write cycles: 47278
1banks busy for read cycles: 16495322
1banks busy for write cycles: 6818639
2banks busy for read cycles: 12667555
2banks busy for write cycles: 4741660
3banks busy for read cycles: 7110590
3banks busy for write cycles: 3642778
4banks busy for read cycles: 6421114
4banks busy for write cycles: 2878505
5banks busy for read cycles: 1805420
5banks busy for write cycles: 2367814
6banks busy for read cycles: 1144106
6banks busy for write cycles: 2028712
7banks busy for read cycles: 1043138
7banks busy for write cycles: 2427248
8banks busy for read cycles: 3947753
8banks busy for write cycles: 8954173

CPU 0 Branch Prediction Accuracy: 99.2833% MPKI: 1.20566 Average ROB Occupancy at Mispredict: 136.089
Branch types
NOT_BRANCH: 41588320 83.1766%
BRANCH_DIRECT_JUMP: 464500 0.929%
BRANCH_INDIRECT: 45704 0.091408%
BRANCH_CONDITIONAL: 6147406 12.2948%
BRANCH_DIRECT_CALL: 675450 1.3509%
BRANCH_INDIRECT_CALL: 201532 0.403064%
BRANCH_RETURN: 876986 1.75397%
BRANCH_OTHER: 0 0%

DRAM PAGES: 1048576
Allocated PAGES: 24906
