Initialize SIGNATURE TABLE
ST_SET: 1
ST_WAY: 256
ST_TAG_BIT: 16
ST_TAG_MASK: ffff

Initialize PATTERN TABLE
PT_SET: 512
PT_WAY: 4
SIG_DELTA_BIT: 7
C_SIG_BIT: 4
C_DELTA_BIT: 4

Initialize PREFETCH FILTER
FILTER_SET: 1024

*** ChampSim Multicore Out-of-Order Simulator ***

Warmup Instructions: 50000000
Simulation Instructions: 50000000
Number of CPUs: 1
LLC sets: 2048
LLC ways: 16
Off-chip DRAM Size: 4096 MB Channels: 1 Width: 64-bit Data Rate: 6400 MT/s
CPU 0 runs ../IPC-traces//server_030.champsimtrace.xz
.xz
NUM_OF_IPS_IN_CRITICAL_IP_TRAINING: 64
NUM_OF_CRITICAL_IP_TRAINING_TABLE_WAYS: 2
NUM_OF_CRITICAL_IP_TRAINING_TABLE_SETS: 32
WOBBLY_CRITICAL_IP_CACHE_SETS: 32
WOBBLY_CRITICAL_IP_CACHE_WAYS: 4
BTB has LRU replacement policy
ITLB has LRU replacement policy
DTLB has LRU replacement policy
STLB has LRU replacement policy
CPU 0 L1I next line prefetcher
L1I has LRU replacement policy
L1D has LRU replacement policy
Initialize SRRIP state for L2C
Initialize DRRIP state for LLC
Heartbeat CPU 0 instructions: 10000003 cycles: 2885828 heartbeat IPC: 3.46521 cumulative IPC: 3.46521 (Simulation time: 0 hr 3 min 8 sec) 
Heartbeat CPU 0 instructions: 20000003 cycles: 5767648 heartbeat IPC: 3.47003 cumulative IPC: 3.46762 (Simulation time: 0 hr 5 min 47 sec) 
Heartbeat CPU 0 instructions: 30000003 cycles: 8650230 heartbeat IPC: 3.46911 cumulative IPC: 3.46812 (Simulation time: 0 hr 8 min 20 sec) 
Heartbeat CPU 0 instructions: 40000001 cycles: 11533281 heartbeat IPC: 3.46855 cumulative IPC: 3.46822 (Simulation time: 0 hr 10 min 37 sec) 
Heartbeat CPU 0 instructions: 50000002 cycles: 14417095 heartbeat IPC: 3.46763 cumulative IPC: 3.46811 (Simulation time: 0 hr 12 min 41 sec) 

Warmup complete CPU 0 instructions: 50000002 cycles: 14417095 (Simulation time: 0 hr 12 min 41 sec) 

% increase in all ip prefetch 412.984
% increase in all ip prefetch -1.24703
Heartbeat CPU 0 instructions: 60000000 cycles: 30503113 heartbeat IPC: 0.621658 cumulative IPC: 0.621658 (Simulation time: 0 hr 15 min 5 sec) 
Heartbeat CPU 0 instructions: 70000002 cycles: 46601563 heartbeat IPC: 0.621178 cumulative IPC: 0.621418 (Simulation time: 0 hr 17 min 34 sec) 
Heartbeat CPU 0 instructions: 80000001 cycles: 62576081 heartbeat IPC: 0.625997 cumulative IPC: 0.622937 (Simulation time: 0 hr 20 min 3 sec) 
*** Reached end of trace for Core: 0 Repeating trace: ../IPC-traces//server_030.champsimtrace.xz
Heartbeat CPU 0 instructions: 90000002 cycles: 78601892 heartbeat IPC: 0.623993 cumulative IPC: 0.623201 (Simulation time: 0 hr 22 min 30 sec) 
Heartbeat CPU 0 instructions: 100000000 cycles: 94472706 heartbeat IPC: 0.630087 cumulative IPC: 0.624566 (Simulation time: 0 hr 24 min 17 sec) 
Finished CPU 0 instructions: 50000002 cycles: 80055612 cumulative IPC: 0.624566 (Simulation time: 0 hr 24 min 17 sec) 

ChampSim completed all CPUs

Region of Interest Statistics

CPU 0 cumulative IPC: 0.624566 instructions: 50000002 cycles: 80055612

CPU 0 Average Load ROB stall cycles: 1.94467e+07
CPU 0 Fraction of times ROB stalled by Loads: 35.6801
CPU 0 Percentage of Load stall cycles in Total stall cycles: 2.76176e+08
Issued all: 28202497
Issued LT all: 22293852
rob_not_full_when_issued_lt_all: 22252077
Issued LT one: 17388134
rob_not_full_when_issued_lt_one: 17352662
 Total stall cycles: 67510643
 Total load stall cycles: 186448509449280
CPU 0 NUM of IPS identified critical: 0
CPU 0 Num of Load IPs stalling ROB: 10833
Threshold modification factor: -1
Max PIST entries: 64
Min PIST entries: 0
Avg PIST entries: 32
Trouble in retire width: 0.897842
MaC = Marked as critical.
lt_50_percent_before_Mac: 0
gt_90_percent_before_Mac: 0
gt_75_percent_before_Mac: 0
gt_50_percent_before_Mac: 0
stall_proportion_bin_same_before_after: 0
stall_proportion_bin_lower_before_after: 0
stall_proportion_bin_upper_before_after: 0
average_stall_proportion_before: -nan
average_stall_proportion_after: -nan
Critical IP stalls, total frequency: 0
Non-critical IP stalls, total frequency: 3420889
Total Freq all stalling IPs: 3420889
stat_90_percent_critical_ip_stalls_freq: 3078888
stat_90_percent_non_critical_ip_stalls_freq: 342001
Critical_IP_ROB_Stalls_Bucket_0: 0
Non-critical_IP_ROB_Stalls_Bucket_0: 2444950
Critical_IP_ROB_Stalls_Bucket_1: 0
Non-critical_IP_ROB_Stalls_Bucket_1: 696332
Critical_IP_ROB_Stalls_Bucket_2: 0
Non-critical_IP_ROB_Stalls_Bucket_2: 211691
Critical_IP_ROB_Stalls_Bucket_3: 0
Non-critical_IP_ROB_Stalls_Bucket_3: 45673
Critical_IP_ROB_Stalls_Bucket_4: 0
Non-critical_IP_ROB_Stalls_Bucket_4: 11376
Critical_IP_ROB_Stalls_Bucket_5: 0
Non-critical_IP_ROB_Stalls_Bucket_5: 5375
Critical_IP_ROB_Stalls_Bucket_6: 0
Non-critical_IP_ROB_Stalls_Bucket_6: 5492
0 => IPs accounting for >50 percent of stalls, 1 => 55, 2 => 60, 3 => 65 and so on till 90.
percent50: 50.0093 num IPs:  465
percent55: 55.0157 num IPs: 663
percent60: 60.004 num IPs: 876
percent65: 65.0159 num IPs: 1091
percent70: 70.0208 num IPs: 1311
percent75: 75.0021 num IPs: 1537
percent80: 80.0089 num IPs: 1767
percent85: 85.008 num IPs: 2009
percent90: 90.0024 num IPs: 2296
Critical_ROB_Stalls_Percent_0_Bucket_0: 1067040
Non-critical_ROB_Stalls_Percent_0_Bucket_0: 1377910
Critical_ROB_Stalls_Percent_0_Bucket_1: 431717
Non-critical_ROB_Stalls_Percent_0_Bucket_1: 264615
Critical_ROB_Stalls_Percent_0_Bucket_2: 151447
Non-critical_ROB_Stalls_Percent_0_Bucket_2: 60244
Critical_ROB_Stalls_Percent_0_Bucket_3: 41349
Non-critical_ROB_Stalls_Percent_0_Bucket_3: 4324
Critical_ROB_Stalls_Percent_0_Bucket_4: 9612
Non-critical_ROB_Stalls_Percent_0_Bucket_4: 1764
Critical_ROB_Stalls_Percent_0_Bucket_5: 4664
Non-critical_ROB_Stalls_Percent_0_Bucket_5: 711
Critical_ROB_Stalls_Percent_0_Bucket_6: 4933
Non-critical_ROB_Stalls_Percent_0_Bucket_6: 559
Critical_ROB_Stalls_Percent_1_Bucket_0: 1196817
Non-critical_ROB_Stalls_Percent_1_Bucket_0: 1248133
Critical_ROB_Stalls_Percent_1_Bucket_1: 461710
Non-critical_ROB_Stalls_Percent_1_Bucket_1: 234622
Critical_ROB_Stalls_Percent_1_Bucket_2: 161155
Non-critical_ROB_Stalls_Percent_1_Bucket_2: 50536
Critical_ROB_Stalls_Percent_1_Bucket_3: 42317
Non-critical_ROB_Stalls_Percent_1_Bucket_3: 3356
Critical_ROB_Stalls_Percent_1_Bucket_4: 10380
Non-critical_ROB_Stalls_Percent_1_Bucket_4: 996
Critical_ROB_Stalls_Percent_1_Bucket_5: 4694
Non-critical_ROB_Stalls_Percent_1_Bucket_5: 681
Critical_ROB_Stalls_Percent_1_Bucket_6: 4949
Non-critical_ROB_Stalls_Percent_1_Bucket_6: 543
Critical_ROB_Stalls_Percent_2_Bucket_0: 1327942
Non-critical_ROB_Stalls_Percent_2_Bucket_0: 1117008
Critical_ROB_Stalls_Percent_2_Bucket_1: 494472
Non-critical_ROB_Stalls_Percent_2_Bucket_1: 201860
Critical_ROB_Stalls_Percent_2_Bucket_2: 167840
Non-critical_ROB_Stalls_Percent_2_Bucket_2: 43851
Critical_ROB_Stalls_Percent_2_Bucket_3: 42391
Non-critical_ROB_Stalls_Percent_2_Bucket_3: 3282
Critical_ROB_Stalls_Percent_2_Bucket_4: 10381
Non-critical_ROB_Stalls_Percent_2_Bucket_4: 995
Critical_ROB_Stalls_Percent_2_Bucket_5: 4694
Non-critical_ROB_Stalls_Percent_2_Bucket_5: 681
Critical_ROB_Stalls_Percent_2_Bucket_6: 4949
Non-critical_ROB_Stalls_Percent_2_Bucket_6: 543
Critical_ROB_Stalls_Percent_3_Bucket_0: 1449894
Non-critical_ROB_Stalls_Percent_3_Bucket_0: 995056
Critical_ROB_Stalls_Percent_3_Bucket_1: 535309
Non-critical_ROB_Stalls_Percent_3_Bucket_1: 161023
Critical_ROB_Stalls_Percent_3_Bucket_2: 176395
Non-critical_ROB_Stalls_Percent_3_Bucket_2: 35296
Critical_ROB_Stalls_Percent_3_Bucket_3: 42491
Non-critical_ROB_Stalls_Percent_3_Bucket_3: 3182
Critical_ROB_Stalls_Percent_3_Bucket_4: 10390
Non-critical_ROB_Stalls_Percent_3_Bucket_4: 986
Critical_ROB_Stalls_Percent_3_Bucket_5: 4694
Non-critical_ROB_Stalls_Percent_3_Bucket_5: 681
Critical_ROB_Stalls_Percent_3_Bucket_6: 4949
Non-critical_ROB_Stalls_Percent_3_Bucket_6: 543
Critical_ROB_Stalls_Percent_4_Bucket_0: 1592929
Non-critical_ROB_Stalls_Percent_4_Bucket_0: 852021
Critical_ROB_Stalls_Percent_4_Bucket_1: 557130
Non-critical_ROB_Stalls_Percent_4_Bucket_1: 139202
Critical_ROB_Stalls_Percent_4_Bucket_2: 182107
Non-critical_ROB_Stalls_Percent_4_Bucket_2: 29584
Critical_ROB_Stalls_Percent_4_Bucket_3: 42900
Non-critical_ROB_Stalls_Percent_4_Bucket_3: 2773
Critical_ROB_Stalls_Percent_4_Bucket_4: 10593
Non-critical_ROB_Stalls_Percent_4_Bucket_4: 783
Critical_ROB_Stalls_Percent_4_Bucket_5: 4725
Non-critical_ROB_Stalls_Percent_4_Bucket_5: 650
Critical_ROB_Stalls_Percent_4_Bucket_6: 4949
Non-critical_ROB_Stalls_Percent_4_Bucket_6: 543
Critical_ROB_Stalls_Percent_5_Bucket_0: 1724751
Non-critical_ROB_Stalls_Percent_5_Bucket_0: 720199
Critical_ROB_Stalls_Percent_5_Bucket_1: 586800
Non-critical_ROB_Stalls_Percent_5_Bucket_1: 109532
Critical_ROB_Stalls_Percent_5_Bucket_2: 190938
Non-critical_ROB_Stalls_Percent_5_Bucket_2: 20753
Critical_ROB_Stalls_Percent_5_Bucket_3: 42972
Non-critical_ROB_Stalls_Percent_5_Bucket_3: 2701
Critical_ROB_Stalls_Percent_5_Bucket_4: 10599
Non-critical_ROB_Stalls_Percent_5_Bucket_4: 777
Critical_ROB_Stalls_Percent_5_Bucket_5: 4727
Non-critical_ROB_Stalls_Percent_5_Bucket_5: 648
Critical_ROB_Stalls_Percent_5_Bucket_6: 4949
Non-critical_ROB_Stalls_Percent_5_Bucket_6: 543
Critical_ROB_Stalls_Percent_6_Bucket_0: 1869866
Non-critical_ROB_Stalls_Percent_6_Bucket_0: 575084
Critical_ROB_Stalls_Percent_6_Bucket_1: 608173
Non-critical_ROB_Stalls_Percent_6_Bucket_1: 88159
Critical_ROB_Stalls_Percent_6_Bucket_2: 195701
Non-critical_ROB_Stalls_Percent_6_Bucket_2: 15990
Critical_ROB_Stalls_Percent_6_Bucket_3: 43003
Non-critical_ROB_Stalls_Percent_6_Bucket_3: 2670
Critical_ROB_Stalls_Percent_6_Bucket_4: 10600
Non-critical_ROB_Stalls_Percent_6_Bucket_4: 776
Critical_ROB_Stalls_Percent_6_Bucket_5: 4728
Non-critical_ROB_Stalls_Percent_6_Bucket_5: 647
Critical_ROB_Stalls_Percent_6_Bucket_6: 4949
Non-critical_ROB_Stalls_Percent_6_Bucket_6: 543
Critical_ROB_Stalls_Percent_7_Bucket_0: 2018040
Non-critical_ROB_Stalls_Percent_7_Bucket_0: 426910
Critical_ROB_Stalls_Percent_7_Bucket_1: 628155
Non-critical_ROB_Stalls_Percent_7_Bucket_1: 68177
Critical_ROB_Stalls_Percent_7_Bucket_2: 198392
Non-critical_ROB_Stalls_Percent_7_Bucket_2: 13299
Critical_ROB_Stalls_Percent_7_Bucket_3: 43164
Non-critical_ROB_Stalls_Percent_7_Bucket_3: 2509
Critical_ROB_Stalls_Percent_7_Bucket_4: 10604
Non-critical_ROB_Stalls_Percent_7_Bucket_4: 772
Critical_ROB_Stalls_Percent_7_Bucket_5: 4728
Non-critical_ROB_Stalls_Percent_7_Bucket_5: 647
Critical_ROB_Stalls_Percent_7_Bucket_6: 4949
Non-critical_ROB_Stalls_Percent_7_Bucket_6: 543
Critical_ROB_Stalls_Percent_8_Bucket_0: 2165271
Non-critical_ROB_Stalls_Percent_8_Bucket_0: 279679
Critical_ROB_Stalls_Percent_8_Bucket_1: 648196
Non-critical_ROB_Stalls_Percent_8_Bucket_1: 48136
Critical_ROB_Stalls_Percent_8_Bucket_2: 201531
Non-critical_ROB_Stalls_Percent_8_Bucket_2: 10160
Critical_ROB_Stalls_Percent_8_Bucket_3: 43490
Non-critical_ROB_Stalls_Percent_8_Bucket_3: 2183
Critical_ROB_Stalls_Percent_8_Bucket_4: 10673
Non-critical_ROB_Stalls_Percent_8_Bucket_4: 703
Critical_ROB_Stalls_Percent_8_Bucket_5: 4753
Non-critical_ROB_Stalls_Percent_8_Bucket_5: 622
Critical_ROB_Stalls_Percent_8_Bucket_6: 4974
Non-critical_ROB_Stalls_Percent_8_Bucket_6: 518
Average ROB occupancy Load Stall Begin: 34.6454
Average ROB occupancy Load Stall End: 43.2034
Min ROB occupancy Load Stall Begin: 1
Max ROB occupancy Load Stall Begin: 352
Min ROB occupancy Load Stall End: 1
Max ROB occupancy Load Stall End: 352
Average ROB occupancy Critical Load Stall Begin: -nan
Average ROB occupancy Critical Load Stall End: -nan
Min ROB occupancy Critical Load Stall Begin: 400
Max ROB occupancy Critical Load Stall Begin: 0
Min ROB occupancy Critical Load Stall End: 400
Max ROB occupancy Critical Load Stall End: 0
 ROB Load Stall Begin Bucket Count 0: 2695650
 ROB Load Stall End Bucket Count 0: 2444950
 ROB Critical Load Stall Begin Bucket Count 0: 0
 ROB Critical Load Stall End Bucket Count 0: 0
 ROB Load Stall Begin Bucket Count 1: 521063
 ROB Load Stall End Bucket Count 1: 696332
 ROB Critical Load Stall Begin Bucket Count 1: 0
 ROB Critical Load Stall End Bucket Count 1: 0
 ROB Load Stall Begin Bucket Count 2: 150347
 ROB Load Stall End Bucket Count 2: 211691
 ROB Critical Load Stall Begin Bucket Count 2: 0
 ROB Critical Load Stall End Bucket Count 2: 0
 ROB Load Stall Begin Bucket Count 3: 35222
 ROB Load Stall End Bucket Count 3: 45673
 ROB Critical Load Stall Begin Bucket Count 3: 0
 ROB Critical Load Stall End Bucket Count 3: 0
 ROB Load Stall Begin Bucket Count 4: 9115
 ROB Load Stall End Bucket Count 4: 11376
 ROB Critical Load Stall Begin Bucket Count 4: 0
 ROB Critical Load Stall End Bucket Count 4: 0
 ROB Load Stall Begin Bucket Count 5: 4972
 ROB Load Stall End Bucket Count 5: 5375
 ROB Critical Load Stall Begin Bucket Count 5: 0
 ROB Critical Load Stall End Bucket Count 5: 0
 ROB Load Stall Begin Bucket Count 6: 4520
 ROB Load Stall End Bucket Count 6: 5492
 ROB Critical Load Stall Begin Bucket Count 6: 0
 ROB Critical Load Stall End Bucket Count 6: 0
PIST Tag Read Accesses: 2471940
PIST Read Accesses: 1235970
PIST Tag Write Accesses: 2471940
PIST Write Accesses: 1235970
Criticality detector called times: 3399505
Max global_stall_cycles_count: 1999003
Threshold Modified: 1 times, factor: -1
Sturdy critical IP cache stats: 
 Unused entries: 0
CIC Tag Read Accesses: 0
CIC Read Accesses: 0
CIC Tag Write Accesses: 0
CIC Write Accesses: 0
Wobbly critical IP cache stats: 
 Unused entries: 126
CIC Tag Read Accesses: 83373428
CIC Read Accesses: 0
CIC Tag Write Accesses: 2
CIC Write Accesses: 0
ITLB TOTAL     ACCESS:   10473030  HIT:    9743824  MISS:     729206  HIT %:    93.0373  MISS %:     6.9627   MPKI: 14.5841
ITLB LOAD TRANSLATION ACCESS:    8335866  HIT:    8282460  MISS:      53406  HIT %:    99.3593  MISS %:   0.640677   MPKI: 1.06812
ITLB TRANSLATION FROM L1D PREFETCHER ACCESS:    2137164  HIT:    1461364  MISS:     675800  HIT %:    68.3787  MISS %:    31.6213   MPKI: 13.516
ITLB PREFETCH  REQUESTED:          0  ISSUED:          0  USEFUL:     551478  USELESS:     124316
ITLB USEFUL LOAD PREFETCHES:     551478 PREFETCH ISSUED TO LOWER LEVEL:          0  ACCURACY: inf
ITLB TIMELY PREFETCHES:     551478 LATE PREFETCHES: 201 DROPPED PREFETCHES: 5145
ITLB PREFETCHES SAME FILL-ORIGIN LEVEL: 0 DIFFERENT FILL-ORIGIN LEVEL: 0
ITLB AVERAGE MISS LATENCY: 16695.9 cycles
ITLB RQ	ACCESS:   15806366	FORWARD:          0	MERGED:    5281717	TO_CACHE:   10524649

DTLB TOTAL     ACCESS:   11227320  HIT:   10702065  MISS:     525255  HIT %:    95.3216  MISS %:    4.67836   MPKI: 10.5051
DTLB LOAD TRANSLATION ACCESS:   11227320  HIT:   10702065  MISS:     525255  HIT %:    95.3216  MISS %:    4.67836   MPKI: 10.5051
DTLB PREFETCH  REQUESTED:          0  ISSUED:          0  USEFUL:          0  USELESS:          0
DTLB USEFUL LOAD PREFETCHES:          0 PREFETCH ISSUED TO LOWER LEVEL:          0  ACCURACY: -nan
DTLB TIMELY PREFETCHES:          0 LATE PREFETCHES: 0 DROPPED PREFETCHES: 0
DTLB PREFETCHES SAME FILL-ORIGIN LEVEL: 0 DIFFERENT FILL-ORIGIN LEVEL: 0
DTLB AVERAGE MISS LATENCY: 9.36022 cycles
DTLB RQ	ACCESS:   14753601	FORWARD:          0	MERGED:    3497598	TO_CACHE:   11256003

STLB TOTAL     ACCESS:    1254461  HIT:    1245394  MISS:       9067  HIT %:    99.2772  MISS %:   0.722781   MPKI: 0.18134
STLB LOAD TRANSLATION ACCESS:     578460  HIT:     573230  MISS:       5230  HIT %:    99.0959  MISS %:   0.904125   MPKI: 0.1046
STLB TRANSLATION FROM L1D PREFETCHER ACCESS:     676001  HIT:     672164  MISS:       3837  HIT %:    99.4324  MISS %:   0.567603   MPKI: 0.07674
STLB PREFETCH  REQUESTED:          0  ISSUED:          0  USEFUL:       2655  USELESS:       1183
STLB USEFUL LOAD PREFETCHES:       2655 PREFETCH ISSUED TO LOWER LEVEL:          0  ACCURACY: inf
STLB TIMELY PREFETCHES:       2655 LATE PREFETCHES: 0 DROPPED PREFETCHES: 5145
STLB PREFETCHES SAME FILL-ORIGIN LEVEL: 0 DIFFERENT FILL-ORIGIN LEVEL: 0
STLB AVERAGE MISS LATENCY: 28.9355 cycles
STLB RQ	ACCESS:    1259606	FORWARD:          0	MERGED:          0	TO_CACHE:    1259606

STLB Hit, L1D data hit: 0
STLB Hit, L2C data hit: 0
STLB Hit, LLC data hit: 0
STLB Hit, LLC data miss: 0
STLB STLB hints to L2: 0
L1D TOTAL     ACCESS:   14229495  HIT:   12767612  MISS:    1461883  HIT %:    89.7264  MISS %:    10.2736   MPKI: 29.2377
L1D LOAD      ACCESS:    7961246  HIT:    6808683  MISS:    1152563  HIT %:    85.5228  MISS %:    14.4772   MPKI: 23.0513
L1D RFO       ACCESS:    6268249  HIT:    5958929  MISS:     309320  HIT %:    95.0653  MISS %:    4.93471   MPKI: 6.1864
L1D PREFETCH  REQUESTED:          0  ISSUED:          0  USEFUL:          0  USELESS:          0
L1D USEFUL LOAD PREFETCHES:          0 PREFETCH ISSUED TO LOWER LEVEL:          0  ACCURACY: -nan
L1D TIMELY PREFETCHES:          0 LATE PREFETCHES: 0 DROPPED PREFETCHES: 0
L1D PREFETCHES SAME FILL-ORIGIN LEVEL: 0 DIFFERENT FILL-ORIGIN LEVEL: 0
L1D AVERAGE MISS LATENCY: 19.1706 cycles
L1D RQ	ACCESS:   11310223	FORWARD:          0	MERGED:    3164352	TO_CACHE:    7998151
L1D WQ	ACCESS:    6823740	FORWARD:     147720	MERGED:      68290	TO_CACHE:    6755450

L1D UNIQUE REGIONS ACCESSED: 0
L1D REGIONS CONFLICTS: 0
L1D Cross Page Prefetch Requests: 0
L1D Same Page Prefetch Requests: 0
L1D ROI Sum of L1D PQ occupancy: 0
L1D PREFETCHES PUSHED FROM L2C: 0
L1I TOTAL     ACCESS:   15710585  HIT:   11465397  MISS:    4245188  HIT %:    72.9788  MISS %:    27.0212   MPKI: 84.9038
L1I LOAD      ACCESS:    9806077  HIT:    9700915  MISS:     105162  HIT %:    98.9276  MISS %:    1.07242   MPKI: 2.10324
L1I PREFETCH  ACCESS:    5904508  HIT:    1764482  MISS:    4140026  HIT %:    29.8836  MISS %:    70.1164   MPKI: 82.8005
L1I PREFETCH  REQUESTED:    6145288  ISSUED:    6133991  USEFUL:    2958595  USELESS:    1181447
L1I USEFUL LOAD PREFETCHES:    2958595 PREFETCH ISSUED TO LOWER LEVEL:    4156043  ACCURACY: 71.1878
L1I TIMELY PREFETCHES:    2958595 LATE PREFETCHES: 16019 DROPPED PREFETCHES: 11711
L1I PREFETCHES SAME FILL-ORIGIN LEVEL: 4156043 DIFFERENT FILL-ORIGIN LEVEL: 0
L1I AVERAGE MISS LATENCY: 205820 cycles
L1I RQ	ACCESS:   13559878	FORWARD:          0	MERGED:    3742914	TO_CACHE:    9816964
L1I PQ	ACCESS:    6133991	FORWARD:          0	MERGED:     144589	TO_CACHE:    5989402

BTB TOTAL     ACCESS:    6033516  HIT:    4123215  MISS:    1910301  HIT %:    68.3385  MISS %:    31.6615   MPKI: 38.206
BTB BRANCH_DIRECT_JUMP	ACCESS:     490939  HIT:     331427  MISS:     159512
BTB BRANCH_INDIRECT	ACCESS:     175853  HIT:     140870  MISS:      34983
BTB BRANCH_CONDITIONAL	ACCESS:    2983032  HIT:    2460633  MISS:     522399
BTB BRANCH_DIRECT_CALL	ACCESS:    1002064  HIT:     623208  MISS:     378856
BTB BRANCH_INDIRECT_CALL	ACCESS:     189782  HIT:     117779  MISS:      72003
BTB BRANCH_RETURN	ACCESS:    1191846  HIT:     449298  MISS:     742548
BTB BRANCH_OTHER ACCESS:          0  HIT:          0  MISS:          0

L2C TOTAL     ACCESS:    6346451  HIT:    5875832  MISS:     470619  HIT %:    92.5845  MISS %:    7.41547   MPKI: 9.41238
L2C LOAD      ACCESS:    1241593  HIT:    1096790  MISS:     144803  HIT %:    88.3373  MISS %:    11.6627   MPKI: 2.89606
L2C DATA LOAD MPKI: 2.6512
L2C INSTRUCTION LOAD MPKI: 0.24486
L2C RFO       ACCESS:     309320  HIT:     281125  MISS:      28195  HIT %:    90.8848  MISS %:    9.11516   MPKI: 0.5639
L2C PREFETCH  ACCESS:    4185262  HIT:    3903387  MISS:     281875  HIT %:    93.2651  MISS %:    6.73494   MPKI: 5.6375
L2C DATA PREFETCH MPKI: 0.00206
L2C INSTRUCTION PREFETCH MPKI: 5.63544
L2C WRITEBACK ACCESS:     595643  HIT:     582029  MISS:      13614  HIT %:    97.7144  MISS %:     2.2856   MPKI: 0.27228
L2C LOAD TRANSLATION ACCESS:       5459  HIT:       3765  MISS:       1694  HIT %:    68.9687  MISS %:    31.0313   MPKI: 0.03388
L2C TRANSLATION FROM L1D PREFETCHER ACCESS:       9174  HIT:       8736  MISS:        438  HIT %:    95.2256  MISS %:    4.77436   MPKI: 0.00876
L2C PREFETCH  REQUESTED:      55786  ISSUED:      55786  USEFUL:       2644  USELESS:     280032
L2C USEFUL LOAD PREFETCHES:       2644 PREFETCH ISSUED TO LOWER LEVEL:     305802  ACCURACY: 0.864612
L2C TIMELY PREFETCHES:       2644 LATE PREFETCHES: 249 DROPPED PREFETCHES: 0
L2C PREFETCHES SAME FILL-ORIGIN LEVEL: 352 DIFFERENT FILL-ORIGIN LEVEL: 23679
L2C AVERAGE MISS LATENCY: 31.8058 cycles
L2C RQ	ACCESS:    1565659	FORWARD:          0	MERGED:          0	TO_CACHE:    1565546
L2C WQ	ACCESS:     595643	FORWARD:        113	MERGED:          0	TO_CACHE:     595643
L2C PQ	ACCESS:    4211829	FORWARD:          0	MERGED:       1989	TO_CACHE:    4209840

L2C Instructions Evicting Data 104503
L2C Translations Evicting Data 1097
L2C Data Evicting Data 64190
L2C Instructions Evicting Instructions 188497
L2C Translations Evicting Instructions 977
L2C Data Evicting Instructions 95634
L2C Instructions Evicting Translations 1015
L2C Translations Evicting Translations 58
L2C Data Evicting Translations 1034
L2C Dense regions hint from L2: 0
PSCL5 TOTAL     ACCESS:      14212  HIT:      14212  MISS:          0  HIT %:        100  MISS %:          0   MPKI: 0
PSCL5 LOAD TRANSLATION ACCESS:       5230  HIT:       5230  MISS:          0  HIT %:        100  MISS %:          0   MPKI: 0
PSCL5 TRANSLATION FROM L1D PREFETCHER ACCESS:       8982  HIT:       8982  MISS:          0  HIT %:        100  MISS %:          0   MPKI: 0
PSCL5 PREFETCH  REQUESTED:          0  ISSUED:          0  USEFUL:          0  USELESS:          0
PSCL5 USEFUL LOAD PREFETCHES:          0 PREFETCH ISSUED TO LOWER LEVEL:          0  ACCURACY: -nan
PSCL5 TIMELY PREFETCHES:          0 LATE PREFETCHES: 0 DROPPED PREFETCHES: 0
PSCL5 PREFETCHES SAME FILL-ORIGIN LEVEL: 0 DIFFERENT FILL-ORIGIN LEVEL: 0

PSCL4 TOTAL     ACCESS:      13249  HIT:      13233  MISS:         16  HIT %:    99.8792  MISS %:   0.120764   MPKI: 0.00032
PSCL4 LOAD TRANSLATION ACCESS:       4367  HIT:       4351  MISS:         16  HIT %:    99.6336  MISS %:   0.366384   MPKI: 0.00032
PSCL4 TRANSLATION FROM L1D PREFETCHER ACCESS:       8882  HIT:       8882  MISS:          0  HIT %:        100  MISS %:          0   MPKI: 0
PSCL4 PREFETCH  REQUESTED:          0  ISSUED:          0  USEFUL:          0  USELESS:          0
PSCL4 USEFUL LOAD PREFETCHES:          0 PREFETCH ISSUED TO LOWER LEVEL:          0  ACCURACY: -nan
PSCL4 TIMELY PREFETCHES:          0 LATE PREFETCHES: 0 DROPPED PREFETCHES: 0
PSCL4 PREFETCHES SAME FILL-ORIGIN LEVEL: 0 DIFFERENT FILL-ORIGIN LEVEL: 0

PSCL3 TOTAL     ACCESS:      14041  HIT:      14025  MISS:         16  HIT %:     99.886  MISS %:   0.113952   MPKI: 0.00032
PSCL3 LOAD TRANSLATION ACCESS:       5159  HIT:       5143  MISS:         16  HIT %:    99.6899  MISS %:   0.310138   MPKI: 0.00032
PSCL3 TRANSLATION FROM L1D PREFETCHER ACCESS:       8882  HIT:       8882  MISS:          0  HIT %:        100  MISS %:          0   MPKI: 0
PSCL3 PREFETCH  REQUESTED:          0  ISSUED:          0  USEFUL:          0  USELESS:          0
PSCL3 USEFUL LOAD PREFETCHES:          0 PREFETCH ISSUED TO LOWER LEVEL:          0  ACCURACY: -nan
PSCL3 TIMELY PREFETCHES:          0 LATE PREFETCHES: 0 DROPPED PREFETCHES: 0
PSCL3 PREFETCHES SAME FILL-ORIGIN LEVEL: 0 DIFFERENT FILL-ORIGIN LEVEL: 0

PSCL2 TOTAL     ACCESS:      14131  HIT:      13845  MISS:        286  HIT %:    97.9761  MISS %:    2.02392   MPKI: 0.00572
PSCL2 LOAD TRANSLATION ACCESS:       5317  HIT:       5031  MISS:        286  HIT %:     94.621  MISS %:    5.37897   MPKI: 0.00572
PSCL2 TRANSLATION FROM L1D PREFETCHER ACCESS:       8814  HIT:       8814  MISS:          0  HIT %:        100  MISS %:          0   MPKI: 0
PSCL2 PREFETCH  REQUESTED:          0  ISSUED:          0  USEFUL:          0  USELESS:          0
PSCL2 USEFUL LOAD PREFETCHES:          0 PREFETCH ISSUED TO LOWER LEVEL:          0  ACCURACY: -nan
PSCL2 TIMELY PREFETCHES:          0 LATE PREFETCHES: 0 DROPPED PREFETCHES: 0
PSCL2 PREFETCHES SAME FILL-ORIGIN LEVEL: 0 DIFFERENT FILL-ORIGIN LEVEL: 0

LLC TOTAL     ACCESS:     523088  HIT:     513396  MISS:       9692  HIT %:    98.1472  MISS %:    1.85284   MPKI: 0.19384
LLC LOAD      ACCESS:     144554  HIT:     137479  MISS:       7075  HIT %:    95.1056  MISS %:    4.89436   MPKI: 0.1415
LLC RFO       ACCESS:      28195  HIT:      26317  MISS:       1878  HIT %:    93.3392  MISS %:    6.66076   MPKI: 0.03756
LLC PREFETCH  ACCESS:     305449  HIT:     304839  MISS:        610  HIT %:    99.8003  MISS %:   0.199706   MPKI: 0.0122
LLC WRITEBACK ACCESS:      42758  HIT:      42658  MISS:        100  HIT %:    99.7661  MISS %:   0.233874   MPKI: 0.002
LLC LOAD TRANSLATION ACCESS:       1694  HIT:       1667  MISS:         27  HIT %:    98.4061  MISS %:    1.59386   MPKI: 0.00054
LLC TRANSLATION FROM L1D PREFETCHER ACCESS:        438  HIT:        436  MISS:          2  HIT %:    99.5434  MISS %:   0.456621   MPKI: 4e-05
LLC PREFETCH  REQUESTED:          0  ISSUED:          0  USEFUL:        494  USELESS:       1758
LLC USEFUL LOAD PREFETCHES:        494 PREFETCH ISSUED TO LOWER LEVEL:        738  ACCURACY: 66.9377
LLC TIMELY PREFETCHES:        494 LATE PREFETCHES: 128 DROPPED PREFETCHES: 0
LLC PREFETCHES SAME FILL-ORIGIN LEVEL: 520 DIFFERENT FILL-ORIGIN LEVEL: 0
LLC AVERAGE MISS LATENCY: 136.157 cycles
LLC RQ	ACCESS:     174881	FORWARD:          0	MERGED:          0	TO_CACHE:     174881
LLC WQ	ACCESS:      42758	FORWARD:          0	MERGED:          0	TO_CACHE:      42758
LLC PQ	ACCESS:     305802	FORWARD:          0	MERGED:        221	TO_CACHE:     305581

LLC Dense regions hint to LLC: 0

RAW hits: 1079548
Loads Generated: 12389772
Loads sent to L1D: 11310223
Stores Generated: 6823741
Stores sent to L1D: 6823740
Major fault: 0 Minor fault: 2136
Allocated PAGES: 2136
I-Shadow cache 408 bytes
Touched + WorthPF tables 6144 bytes 
MMA filter 174 bytes 
FNL filter 272 bytes 
TOTAL PREFETCHER STORAGE SIZE: 25174 bytes
CPU 0 L1I next line prefetcher final stats
 All Calls: 10724126
 Critical Calls: 10724126
------------------
Depth Distribution
------------------
depth 0: 0
depth 1: 1161754
depth 2: 261095
depth 3: 2912
depth 4: 1400
depth 5: 969
depth 6: 657
depth 7: 383
depth 8: 258
depth 9: 197
depth 10: 116
depth 11: 48
depth 12: 7
depth 13: 2
depth 14: 1
depth 15: 1
depth 16: 1
depth 17: 0
depth 18: 0
depth 19: 0
depth 20: 0
depth 21: 0
depth 22: 0
depth 23: 0
depth 24: 0
depth 25: 0
depth 26: 0
depth 27: 0
depth 28: 0
depth 29: 0
Total: 1429801
-----------------------------
-----------------------------
	Captured at Filter
-----------------------------
depth 0: 0
depth 1: 197301
depth 2: 108395
depth 3: 1356
depth 4: 632
depth 5: 386
depth 6: 213
depth 7: 56
depth 8: 1
depth 9: 0
depth 10: 0
depth 11: 0
depth 12: 0
depth 13: 0
depth 14: 0
depth 15: 0
depth 16: 0
depth 17: 0
depth 18: 0
depth 19: 0
depth 20: 0
depth 21: 0
depth 22: 0
depth 23: 0
depth 24: 0
depth 25: 0
depth 26: 0
depth 27: 0
depth 28: 0
depth 29: 0
-----------------------------
-----------------------------
		Lost at Page
-----------------------------
depth 0: 0
depth 1: 449042
depth 2: 33343
depth 3: 430
depth 4: 178
depth 5: 145
depth 6: 110
depth 7: 71
depth 8: 45
depth 9: 40
depth 10: 26
depth 11: 11
depth 12: 1
depth 13: 0
depth 14: 0
depth 15: 0
depth 16: 0
depth 17: 0
depth 18: 0
depth 19: 0
depth 20: 0
depth 21: 0
depth 22: 0
depth 23: 0
depth 24: 0
depth 25: 0
depth 26: 0
depth 27: 0
depth 28: 0
depth 29: 0
-----------------------------
-----------------------------
	Lost due to PQ Size
-----------------------------
10674930
-----------------------------
ST read accesses: 4612998
ST write accesses: 693318
PT read accesses: 58868215
PT write accesses: 6204171
FILTER read accesses: 11373842
FILTER write accesses: 503019
GHR read accesses: 7595951
GHR write accesses: 292025
GHR counter read accesses: 52622320
GHR counter write accesses: 5518275
ST tag read accesses: 2394872220
ST tag write accesses: 256470831

DRAM Statistics
 CHANNEL 0
 RQ ROW_BUFFER_HIT:       3436  ROW_BUFFER_MISS:       6156
 DBUS_CONGESTED:         10
 WQ ROW_BUFFER_HIT:        154  ROW_BUFFER_MISS:       1470  FULL:          0

 AVG_CONGESTED_CYCLE: 2
 All warmup complete: 2
Channel 0 Bank busy for read cycles: 0
Channel 0 Bank busy for write cycles: 0
Channel 0
Rank 0
0banks busy for read cycles: 78877009
0banks busy for write cycles: 910
1banks busy for read cycles: 777714
1banks busy for write cycles: 180469
2banks busy for read cycles: 53291
2banks busy for write cycles: 59691
3banks busy for read cycles: 23218
3banks busy for write cycles: 26585
4banks busy for read cycles: 5230
4banks busy for write cycles: 17495
5banks busy for read cycles: 3680
5banks busy for write cycles: 11104
6banks busy for read cycles: 3470
6banks busy for write cycles: 3195
7banks busy for read cycles: 3743
7banks busy for write cycles: 1120
8banks busy for read cycles: 6867
8banks busy for write cycles: 822

CPU 0 Branch Prediction Accuracy: 99.8445% MPKI: 0.29148 Average ROB Occupancy at Mispredict: 80.3165
Branch types
NOT_BRANCH: 40627788 81.2556%
BRANCH_DIRECT_JUMP: 490939 0.981878%
BRANCH_INDIRECT: 175853 0.351706%
BRANCH_CONDITIONAL: 6321387 12.6428%
BRANCH_DIRECT_CALL: 1002064 2.00413%
BRANCH_INDIRECT_CALL: 189782 0.379564%
BRANCH_RETURN: 1191846 2.38369%
BRANCH_OTHER: 0 0%

DRAM PAGES: 1048576
Allocated PAGES: 2136
