
*** ChampSim Multicore Out-of-Order Simulator ***

Warmup Instructions: 50000000
Simulation Instructions: 50000000
Number of CPUs: 1
LLC sets: 2048
LLC ways: 16
Off-chip DRAM Size: 4096 MB Channels: 1 Width: 64-bit Data Rate: 6400 MT/s
CPU 0 runs ../IPC-traces//server_028.champsimtrace.xz
.xz
NUM_OF_IPS_IN_CRITICAL_IP_TRAINING: 64
NUM_OF_CRITICAL_IP_TRAINING_TABLE_WAYS: 2
NUM_OF_CRITICAL_IP_TRAINING_TABLE_SETS: 32
WOBBLY_CRITICAL_IP_CACHE_SETS: 32
WOBBLY_CRITICAL_IP_CACHE_WAYS: 4
BTB has LRU replacement policy
ITLB has LRU replacement policy
DTLB has LRU replacement policy
STLB has LRU replacement policy
CPU 0 L1I next line prefetcher
L1I has LRU replacement policy
IP Table Entries: 64
L1D has LRU replacement policy
Initialize SRRIP state for L2C
Initialize DRRIP state for LLC
Heartbeat CPU 0 instructions: 10000001 cycles: 2881389 heartbeat IPC: 3.47055 cumulative IPC: 3.47055 (Simulation time: 0 hr 3 min 57 sec) 
Heartbeat CPU 0 instructions: 20000001 cycles: 5758020 heartbeat IPC: 3.47629 cumulative IPC: 3.47342 (Simulation time: 0 hr 7 min 4 sec) 
Heartbeat CPU 0 instructions: 30000001 cycles: 8634059 heartbeat IPC: 3.477 cumulative IPC: 3.47461 (Simulation time: 0 hr 9 min 39 sec) 
Heartbeat CPU 0 instructions: 40000000 cycles: 11512588 heartbeat IPC: 3.474 cumulative IPC: 3.47446 (Simulation time: 0 hr 12 min 11 sec) 
Heartbeat CPU 0 instructions: 50000001 cycles: 14389020 heartbeat IPC: 3.47653 cumulative IPC: 3.47487 (Simulation time: 0 hr 14 min 39 sec) 

Warmup complete CPU 0 instructions: 50000001 cycles: 14389020 (Simulation time: 0 hr 14 min 39 sec) 

% increase in all ip prefetch 412.466
% increase in all ip prefetch -0.582447
Heartbeat CPU 0 instructions: 60000000 cycles: 30495472 heartbeat IPC: 0.620869 cumulative IPC: 0.620869 (Simulation time: 0 hr 16 min 56 sec) 
Heartbeat CPU 0 instructions: 70000000 cycles: 46500892 heartbeat IPC: 0.624788 cumulative IPC: 0.622823 (Simulation time: 0 hr 19 min 14 sec) 
Heartbeat CPU 0 instructions: 80000000 cycles: 62515205 heartbeat IPC: 0.624441 cumulative IPC: 0.623361 (Simulation time: 0 hr 21 min 30 sec) 
*** Reached end of trace for Core: 0 Repeating trace: ../IPC-traces//server_028.champsimtrace.xz
Heartbeat CPU 0 instructions: 90000001 cycles: 78452053 heartbeat IPC: 0.627477 cumulative IPC: 0.624385 (Simulation time: 0 hr 23 min 45 sec) 
Heartbeat CPU 0 instructions: 100000003 cycles: 94369053 heartbeat IPC: 0.628259 cumulative IPC: 0.625156 (Simulation time: 0 hr 26 min 4 sec) 
Finished CPU 0 instructions: 50000002 cycles: 79980033 cumulative IPC: 0.625156 (Simulation time: 0 hr 26 min 4 sec) 

ChampSim completed all CPUs

Region of Interest Statistics

CPU 0 cumulative IPC: 0.625156 instructions: 50000002 cycles: 79980033

CPU 0 Average Load ROB stall cycles: 6.3932e+06
CPU 0 Fraction of times ROB stalled by Loads: 11.7363
CPU 0 Percentage of Load stall cycles in Total stall cycles: 9.67817e+07
 Total stall cycles: 47339079
 Total load stall cycles: 45815542807074
CPU 0 NUM of IPS identified critical: 1
CPU 0 Num of Load IPs stalling ROB: 4184
Threshold modification factor: -1
Max PIST entries: 64
Min PIST entries: 0
Avg PIST entries: 32
Trouble in retire width: 0.720041
MaC = Marked as critical.
lt_50_percent_before_Mac: 1
gt_90_percent_before_Mac: 0
gt_75_percent_before_Mac: 0
gt_50_percent_before_Mac: 0
stall_proportion_bin_same_before_after: 0
stall_proportion_bin_lower_before_after: 0
stall_proportion_bin_upper_before_after: 0
average_stall_proportion_before: 0.426951
average_stall_proportion_after: 0.425687
Critical IP stalls, total frequency: 33855
Non-critical IP stalls, total frequency: 722859
Critical_IP_ROB_Stalls_Bucket_0: 2861
Non-critical_IP_ROB_Stalls_Bucket_0: 652690
Critical_IP_ROB_Stalls_Bucket_1: 6404
Non-critical_IP_ROB_Stalls_Bucket_1: 101240
Critical_IP_ROB_Stalls_Bucket_2: 15740
Non-critical_IP_ROB_Stalls_Bucket_2: 34531
Critical_IP_ROB_Stalls_Bucket_3: 5323
Non-critical_IP_ROB_Stalls_Bucket_3: 12070
Critical_IP_ROB_Stalls_Bucket_4: 1799
Non-critical_IP_ROB_Stalls_Bucket_4: 5426
Critical_IP_ROB_Stalls_Bucket_5: 750
Non-critical_IP_ROB_Stalls_Bucket_5: 826
Critical_IP_ROB_Stalls_Bucket_6: 978
Non-critical_IP_ROB_Stalls_Bucket_6: 421
0 => IPs accounting for >50 percent of stalls, 1 => 55, 2 => 60, 3 => 65 and so on till 90.
percent50: 50.0164 num IPs:201
percent55: 55.05 num IPs:252
percent60: 60.0519 num IPs:304
percent65: 65.0079 num IPs:357
percent70: 70.0461 num IPs:413
percent75: 75.0159 num IPs:471
percent80: 80.0134 num IPs:534
percent85: 85.0025 num IPs:607
percent90: 90.0101 num IPs:702
Critical_ROB_Stalls_Percent_0_Bucket_0: 259385
Non-critical_ROB_Stalls_Percent_0_Bucket_0: 396166
Critical_ROB_Stalls_Percent_0_Bucket_1: 54667
Non-critical_ROB_Stalls_Percent_0_Bucket_1: 52977
Critical_ROB_Stalls_Percent_0_Bucket_2: 39515
Non-critical_ROB_Stalls_Percent_0_Bucket_2: 10756
Critical_ROB_Stalls_Percent_0_Bucket_3: 15593
Non-critical_ROB_Stalls_Percent_0_Bucket_3: 1800
Critical_ROB_Stalls_Percent_0_Bucket_4: 6603
Non-critical_ROB_Stalls_Percent_0_Bucket_4: 622
Critical_ROB_Stalls_Percent_0_Bucket_5: 1391
Non-critical_ROB_Stalls_Percent_0_Bucket_5: 185
Critical_ROB_Stalls_Percent_0_Bucket_6: 1327
Non-critical_ROB_Stalls_Percent_0_Bucket_6: 72
Critical_ROB_Stalls_Percent_1_Bucket_0: 294481
Non-critical_ROB_Stalls_Percent_1_Bucket_0: 361070
Critical_ROB_Stalls_Percent_1_Bucket_1: 57581
Non-critical_ROB_Stalls_Percent_1_Bucket_1: 50063
Critical_ROB_Stalls_Percent_1_Bucket_2: 39595
Non-critical_ROB_Stalls_Percent_1_Bucket_2: 10676
Critical_ROB_Stalls_Percent_1_Bucket_3: 15593
Non-critical_ROB_Stalls_Percent_1_Bucket_3: 1800
Critical_ROB_Stalls_Percent_1_Bucket_4: 6603
Non-critical_ROB_Stalls_Percent_1_Bucket_4: 622
Critical_ROB_Stalls_Percent_1_Bucket_5: 1391
Non-critical_ROB_Stalls_Percent_1_Bucket_5: 185
Critical_ROB_Stalls_Percent_1_Bucket_6: 1327
Non-critical_ROB_Stalls_Percent_1_Bucket_6: 72
Critical_ROB_Stalls_Percent_2_Bucket_0: 329708
Non-critical_ROB_Stalls_Percent_2_Bucket_0: 325843
Critical_ROB_Stalls_Percent_2_Bucket_1: 60200
Non-critical_ROB_Stalls_Percent_2_Bucket_1: 47444
Critical_ROB_Stalls_Percent_2_Bucket_2: 39599
Non-critical_ROB_Stalls_Percent_2_Bucket_2: 10672
Critical_ROB_Stalls_Percent_2_Bucket_3: 15593
Non-critical_ROB_Stalls_Percent_2_Bucket_3: 1800
Critical_ROB_Stalls_Percent_2_Bucket_4: 6603
Non-critical_ROB_Stalls_Percent_2_Bucket_4: 622
Critical_ROB_Stalls_Percent_2_Bucket_5: 1391
Non-critical_ROB_Stalls_Percent_2_Bucket_5: 185
Critical_ROB_Stalls_Percent_2_Bucket_6: 1327
Non-critical_ROB_Stalls_Percent_2_Bucket_6: 72
Critical_ROB_Stalls_Percent_3_Bucket_0: 366531
Non-critical_ROB_Stalls_Percent_3_Bucket_0: 289020
Critical_ROB_Stalls_Percent_3_Bucket_1: 60877
Non-critical_ROB_Stalls_Percent_3_Bucket_1: 46767
Critical_ROB_Stalls_Percent_3_Bucket_2: 39601
Non-critical_ROB_Stalls_Percent_3_Bucket_2: 10670
Critical_ROB_Stalls_Percent_3_Bucket_3: 15594
Non-critical_ROB_Stalls_Percent_3_Bucket_3: 1799
Critical_ROB_Stalls_Percent_3_Bucket_4: 6603
Non-critical_ROB_Stalls_Percent_3_Bucket_4: 622
Critical_ROB_Stalls_Percent_3_Bucket_5: 1391
Non-critical_ROB_Stalls_Percent_3_Bucket_5: 185
Critical_ROB_Stalls_Percent_3_Bucket_6: 1327
Non-critical_ROB_Stalls_Percent_3_Bucket_6: 72
Critical_ROB_Stalls_Percent_4_Bucket_0: 399841
Non-critical_ROB_Stalls_Percent_4_Bucket_0: 255710
Critical_ROB_Stalls_Percent_4_Bucket_1: 63928
Non-critical_ROB_Stalls_Percent_4_Bucket_1: 43716
Critical_ROB_Stalls_Percent_4_Bucket_2: 41098
Non-critical_ROB_Stalls_Percent_4_Bucket_2: 9173
Critical_ROB_Stalls_Percent_4_Bucket_3: 15754
Non-critical_ROB_Stalls_Percent_4_Bucket_3: 1639
Critical_ROB_Stalls_Percent_4_Bucket_4: 6692
Non-critical_ROB_Stalls_Percent_4_Bucket_4: 533
Critical_ROB_Stalls_Percent_4_Bucket_5: 1401
Non-critical_ROB_Stalls_Percent_4_Bucket_5: 175
Critical_ROB_Stalls_Percent_4_Bucket_6: 1335
Non-critical_ROB_Stalls_Percent_4_Bucket_6: 64
Critical_ROB_Stalls_Percent_5_Bucket_0: 433674
Non-critical_ROB_Stalls_Percent_5_Bucket_0: 221877
Critical_ROB_Stalls_Percent_5_Bucket_1: 67609
Non-critical_ROB_Stalls_Percent_5_Bucket_1: 40035
Critical_ROB_Stalls_Percent_5_Bucket_2: 41178
Non-critical_ROB_Stalls_Percent_5_Bucket_2: 9093
Critical_ROB_Stalls_Percent_5_Bucket_3: 15766
Non-critical_ROB_Stalls_Percent_5_Bucket_3: 1627
Critical_ROB_Stalls_Percent_5_Bucket_4: 6693
Non-critical_ROB_Stalls_Percent_5_Bucket_4: 532
Critical_ROB_Stalls_Percent_5_Bucket_5: 1401
Non-critical_ROB_Stalls_Percent_5_Bucket_5: 175
Critical_ROB_Stalls_Percent_5_Bucket_6: 1335
Non-critical_ROB_Stalls_Percent_5_Bucket_6: 64
Critical_ROB_Stalls_Percent_6_Bucket_0: 464002
Non-critical_ROB_Stalls_Percent_6_Bucket_0: 191549
Critical_ROB_Stalls_Percent_6_Bucket_1: 73825
Non-critical_ROB_Stalls_Percent_6_Bucket_1: 33819
Critical_ROB_Stalls_Percent_6_Bucket_2: 42424
Non-critical_ROB_Stalls_Percent_6_Bucket_2: 7847
Critical_ROB_Stalls_Percent_6_Bucket_3: 15789
Non-critical_ROB_Stalls_Percent_6_Bucket_3: 1604
Critical_ROB_Stalls_Percent_6_Bucket_4: 6697
Non-critical_ROB_Stalls_Percent_6_Bucket_4: 528
Critical_ROB_Stalls_Percent_6_Bucket_5: 1401
Non-critical_ROB_Stalls_Percent_6_Bucket_5: 175
Critical_ROB_Stalls_Percent_6_Bucket_6: 1335
Non-critical_ROB_Stalls_Percent_6_Bucket_6: 64
Critical_ROB_Stalls_Percent_7_Bucket_0: 494008
Non-critical_ROB_Stalls_Percent_7_Bucket_0: 161543
Critical_ROB_Stalls_Percent_7_Bucket_1: 80441
Non-critical_ROB_Stalls_Percent_7_Bucket_1: 27203
Critical_ROB_Stalls_Percent_7_Bucket_2: 43267
Non-critical_ROB_Stalls_Percent_7_Bucket_2: 7004
Critical_ROB_Stalls_Percent_7_Bucket_3: 15968
Non-critical_ROB_Stalls_Percent_7_Bucket_3: 1425
Critical_ROB_Stalls_Percent_7_Bucket_4: 6755
Non-critical_ROB_Stalls_Percent_7_Bucket_4: 470
Critical_ROB_Stalls_Percent_7_Bucket_5: 1446
Non-critical_ROB_Stalls_Percent_7_Bucket_5: 130
Critical_ROB_Stalls_Percent_7_Bucket_6: 1341
Non-critical_ROB_Stalls_Percent_7_Bucket_6: 58
Critical_ROB_Stalls_Percent_8_Bucket_0: 526491
Non-critical_ROB_Stalls_Percent_8_Bucket_0: 129060
Critical_ROB_Stalls_Percent_8_Bucket_1: 84387
Non-critical_ROB_Stalls_Percent_8_Bucket_1: 23257
Critical_ROB_Stalls_Percent_8_Bucket_2: 44621
Non-critical_ROB_Stalls_Percent_8_Bucket_2: 5650
Critical_ROB_Stalls_Percent_8_Bucket_3: 16067
Non-critical_ROB_Stalls_Percent_8_Bucket_3: 1326
Critical_ROB_Stalls_Percent_8_Bucket_4: 6757
Non-critical_ROB_Stalls_Percent_8_Bucket_4: 468
Critical_ROB_Stalls_Percent_8_Bucket_5: 1455
Non-critical_ROB_Stalls_Percent_8_Bucket_5: 121
Critical_ROB_Stalls_Percent_8_Bucket_6: 1341
Non-critical_ROB_Stalls_Percent_8_Bucket_6: 58
Average ROB occupancy Load Stall Begin: 34.9809
Average ROB occupancy Load Stall End: 39.432
Min ROB occupancy Load Stall Begin: 1
Max ROB occupancy Load Stall Begin: 351
Min ROB occupancy Load Stall End: 1
Max ROB occupancy Load Stall End: 352
Average ROB occupancy Critical Load Stall Begin: 126.774
Average ROB occupancy Critical Load Stall End: 127.354
Min ROB occupancy Critical Load Stall Begin: 3
Max ROB occupancy Critical Load Stall Begin: 351
Min ROB occupancy Critical Load Stall End: 3
Max ROB occupancy Critical Load Stall End: 352
 ROB Load Stall Begin Bucket Count 0: 682861
 ROB Load Stall End Bucket Count 0: 655551
 ROB Critical Load Stall Begin Bucket Count 0: 1886
 ROB Critical Load Stall End Bucket Count 0: 1838
 ROB Load Stall Begin Bucket Count 1: 88642
 ROB Load Stall End Bucket Count 1: 107644
 ROB Critical Load Stall Begin Bucket Count 1: 4102
 ROB Critical Load Stall End Bucket Count 1: 4064
 ROB Load Stall Begin Bucket Count 2: 44476
 ROB Load Stall End Bucket Count 2: 50271
 ROB Critical Load Stall Begin Bucket Count 2: 9887
 ROB Critical Load Stall End Bucket Count 2: 9887
 ROB Load Stall Begin Bucket Count 3: 15939
 ROB Load Stall End Bucket Count 3: 17393
 ROB Critical Load Stall Begin Bucket Count 3: 3166
 ROB Critical Load Stall End Bucket Count 3: 3228
 ROB Load Stall Begin Bucket Count 4: 6428
 ROB Load Stall End Bucket Count 4: 7225
 ROB Critical Load Stall Begin Bucket Count 4: 1023
 ROB Critical Load Stall End Bucket Count 4: 1038
 ROB Load Stall Begin Bucket Count 5: 1395
 ROB Load Stall End Bucket Count 5: 1576
 ROB Critical Load Stall Begin Bucket Count 5: 427
 ROB Critical Load Stall End Bucket Count 5: 434
 ROB Load Stall Begin Bucket Count 6: 1318
 ROB Load Stall End Bucket Count 6: 1399
 ROB Critical Load Stall Begin Bucket Count 6: 526
 ROB Critical Load Stall End Bucket Count 6: 528
PIST Tag Read Accesses: 221986
PIST Read Accesses: 110993
PIST Tag Write Accesses: 221986
PIST Write Accesses: 110993
Criticality detector called times: 368006
Max global_stall_cycles_count: 201338
Threshold Modified: 1 times, factor: -1
ITLB TOTAL     ACCESS:   10433259  HIT:    9699538  MISS:     733721  HIT %:    92.9675  MISS %:    7.03252   MPKI: 14.6744
ITLB LOAD TRANSLATION ACCESS:    8323807  HIT:    8272038  MISS:      51769  HIT %:    99.3781  MISS %:   0.621939   MPKI: 1.03538
ITLB TRANSLATION FROM L1D PREFETCHER ACCESS:    2109452  HIT:    1427500  MISS:     681952  HIT %:    67.6716  MISS %:    32.3284   MPKI: 13.639
ITLB PREFETCH  REQUESTED:          0  ISSUED:          0  USEFUL:     546710  USELESS:     135242
ITLB USEFUL LOAD PREFETCHES:     546710 PREFETCH ISSUED TO LOWER LEVEL:          0  ACCURACY: inf
ITLB TIMELY PREFETCHES:     546710 LATE PREFETCHES: 208 DROPPED PREFETCHES: 4850
ITLB PREFETCHES SAME FILL-ORIGIN LEVEL: 0 DIFFERENT FILL-ORIGIN LEVEL: 0
ITLB AVERAGE MISS LATENCY: 14861.8 cycles
ITLB RQ	ACCESS:   15684872	FORWARD:          0	MERGED:    5205957	TO_CACHE:   10478915

DTLB TOTAL     ACCESS:   11101613  HIT:   10562569  MISS:     539044  HIT %:    95.1445  MISS %:    4.85555   MPKI: 10.7809
DTLB LOAD TRANSLATION ACCESS:   11101613  HIT:   10562569  MISS:     539044  HIT %:    95.1445  MISS %:    4.85555   MPKI: 10.7809
DTLB PREFETCH  REQUESTED:          0  ISSUED:          0  USEFUL:          0  USELESS:          0
DTLB USEFUL LOAD PREFETCHES:          0 PREFETCH ISSUED TO LOWER LEVEL:          0  ACCURACY: -nan
DTLB TIMELY PREFETCHES:          0 LATE PREFETCHES: 0 DROPPED PREFETCHES: 0
DTLB PREFETCHES SAME FILL-ORIGIN LEVEL: 0 DIFFERENT FILL-ORIGIN LEVEL: 0
DTLB AVERAGE MISS LATENCY: 11.3499 cycles
DTLB RQ	ACCESS:   14593077	FORWARD:          0	MERGED:    3463204	TO_CACHE:   11129873

STLB TOTAL     ACCESS:    1651374  HIT:    1630213  MISS:      21161  HIT %:    98.7186  MISS %:    1.28142   MPKI: 0.42322
STLB LOAD TRANSLATION ACCESS:     590605  HIT:     574567  MISS:      16038  HIT %:    97.2845  MISS %:    2.71552   MPKI: 0.32076
STLB TRANSLATION FROM L1D PREFETCHER ACCESS:    1060769  HIT:    1055646  MISS:       5123  HIT %:     99.517  MISS %:   0.482952   MPKI: 0.10246
STLB PREFETCH  REQUESTED:          0  ISSUED:          0  USEFUL:       2672  USELESS:       2449
STLB USEFUL LOAD PREFETCHES:       2672 PREFETCH ISSUED TO LOWER LEVEL:          0  ACCURACY: inf
STLB TIMELY PREFETCHES:       2672 LATE PREFETCHES: 0 DROPPED PREFETCHES: 4850
STLB PREFETCHES SAME FILL-ORIGIN LEVEL: 0 DIFFERENT FILL-ORIGIN LEVEL: 0
STLB AVERAGE MISS LATENCY: 67.0817 cycles
STLB RQ	ACCESS:    1942058	FORWARD:          0	MERGED:     285834	TO_CACHE:    1656224

STLB Hit, L1D data hit: 0
STLB Hit, L2C data hit: 0
STLB Hit, LLC data hit: 0
STLB Hit, LLC data miss: 0
STLB STLB hints to L2: 0
L1D TOTAL     ACCESS:   14660257  HIT:   13017880  MISS:    1642377  HIT %:    88.7971  MISS %:    11.2029   MPKI: 32.8475
L1D LOAD      ACCESS:    7868654  HIT:    6953579  MISS:     915075  HIT %:    88.3706  MISS %:    11.6294   MPKI: 18.3015
L1D RFO       ACCESS:    6193209  HIT:    5891323  MISS:     301886  HIT %:    95.1255  MISS %:    4.87447   MPKI: 6.03772
L1D PREFETCH  ACCESS:     598394  HIT:     172978  MISS:     425416  HIT %:     28.907  MISS %:     71.093   MPKI: 8.50832
L1D PREFETCH  REQUESTED:    1329118  ISSUED:    1329038  USEFUL:     247624  USELESS:     177802
L1D USEFUL LOAD PREFETCHES:     247624 PREFETCH ISSUED TO LOWER LEVEL:     469558  ACCURACY: 52.7356
L1D TIMELY PREFETCHES:     247624 LATE PREFETCHES: 44021 DROPPED PREFETCHES: 0
L1D PREFETCHES SAME FILL-ORIGIN LEVEL: 469558 DIFFERENT FILL-ORIGIN LEVEL: 0
L1D AVERAGE MISS LATENCY: 1.47101e+06 cycles
L1D RQ	ACCESS:   11208830	FORWARD:          0	MERGED:    3154449	TO_CACHE:    7909817
L1D WQ	ACCESS:    6759297	FORWARD:     144716	MERGED:      76037	TO_CACHE:    6683260
L1D PQ	ACCESS:     664595	FORWARD:          0	MERGED:          0	TO_CACHE:     664443

L1D UNIQUE REGIONS ACCESSED: 0
L1D REGIONS CONFLICTS: 0
L1D Cross Page Prefetch Requests: 0
L1D Same Page Prefetch Requests: 1322488
L1D ROI Sum of L1D PQ occupancy: 8550940
L1D PREFETCHES PUSHED FROM L2C: 0
L1I TOTAL     ACCESS:   15600000  HIT:   11430470  MISS:    4169530  HIT %:    73.2722  MISS %:    26.7278   MPKI: 83.3906
L1I LOAD      ACCESS:    9766631  HIT:    9678620  MISS:      88011  HIT %:    99.0989  MISS %:    0.90114   MPKI: 1.76022
L1I PREFETCH  ACCESS:    5833369  HIT:    1751850  MISS:    4081519  HIT %:    30.0315  MISS %:    69.9685   MPKI: 81.6304
L1I PREFETCH  REQUESTED:    6039893  ISSUED:    6028841  USEFUL:    2920666  USELESS:    1160876
L1I USEFUL LOAD PREFETCHES:    2920666 PREFETCH ISSUED TO LOWER LEVEL:    4097041  ACCURACY: 71.2872
L1I TIMELY PREFETCHES:    2920666 LATE PREFETCHES: 15520 DROPPED PREFETCHES: 11270
L1I PREFETCHES SAME FILL-ORIGIN LEVEL: 4097041 DIFFERENT FILL-ORIGIN LEVEL: 0
L1I AVERAGE MISS LATENCY: 196353 cycles
L1I RQ	ACCESS:   13597311	FORWARD:          0	MERGED:    3820839	TO_CACHE:    9776472
L1I PQ	ACCESS:    6028841	FORWARD:          0	MERGED:     120441	TO_CACHE:    5908400

BTB TOTAL     ACCESS:    6140417  HIT:    4333497  MISS:    1806920  HIT %:    70.5733  MISS %:    29.4267   MPKI: 36.1384
BTB BRANCH_DIRECT_JUMP	ACCESS:     523489  HIT:     378260  MISS:     145229
BTB BRANCH_INDIRECT	ACCESS:     166997  HIT:     132278  MISS:      34719
BTB BRANCH_CONDITIONAL	ACCESS:    3096552  HIT:    2604377  MISS:     492175
BTB BRANCH_DIRECT_CALL	ACCESS:     989486  HIT:     640103  MISS:     349383
BTB BRANCH_INDIRECT_CALL	ACCESS:     187202  HIT:     119541  MISS:      67661
BTB BRANCH_RETURN	ACCESS:    1176691  HIT:     458938  MISS:     717753
BTB BRANCH_OTHER ACCESS:          0  HIT:          0  MISS:          0

L2C TOTAL     ACCESS:    6443797  HIT:    5916656  MISS:     527141  HIT %:    91.8194  MISS %:     8.1806   MPKI: 10.5428
L2C LOAD      ACCESS:     943540  HIT:     826819  MISS:     116721  HIT %:    87.6295  MISS %:    12.3705   MPKI: 2.33442
L2C DATA LOAD MPKI: 2.15338
L2C INSTRUCTION LOAD MPKI: 0.18104
L2C RFO       ACCESS:     301765  HIT:     273406  MISS:      28359  HIT %:    90.6023  MISS %:    9.39771   MPKI: 0.56718
L2C PREFETCH  ACCESS:    4566574  HIT:    4207737  MISS:     358837  HIT %:    92.1421  MISS %:     7.8579   MPKI: 7.17674
L2C DATA PREFETCH MPKI: 2.5706
L2C INSTRUCTION PREFETCH MPKI: 4.60614
L2C WRITEBACK ACCESS:     594982  HIT:     584666  MISS:      10316  HIT %:    98.2662  MISS %:    1.73383   MPKI: 0.20632
L2C LOAD TRANSLATION ACCESS:      23972  HIT:      12317  MISS:      11655  HIT %:    51.3808  MISS %:    48.6192   MPKI: 0.2331
L2C TRANSLATION FROM L1D PREFETCHER ACCESS:      12964  HIT:      11711  MISS:       1253  HIT %:    90.3348  MISS %:    9.66523   MPKI: 0.02506
L2C PREFETCH  REQUESTED:          0  ISSUED:          0  USEFUL:       4951  USELESS:     355183
L2C USEFUL LOAD PREFETCHES:       4951 PREFETCH ISSUED TO LOWER LEVEL:     358837  ACCURACY: 1.37974
L2C TIMELY PREFETCHES:       4951 LATE PREFETCHES: 0 DROPPED PREFETCHES: 0
L2C PREFETCHES SAME FILL-ORIGIN LEVEL: 0 DIFFERENT FILL-ORIGIN LEVEL: 0
L2C AVERAGE MISS LATENCY: 45.9828 cycles
L2C RQ	ACCESS:    1282245	FORWARD:          0	MERGED:          0	TO_CACHE:    1282240
L2C WQ	ACCESS:     594982	FORWARD:         28	MERGED:          0	TO_CACHE:     594982
L2C PQ	ACCESS:    4566599	FORWARD:          0	MERGED:          0	TO_CACHE:    4566576

L2C Instructions Evicting Data 102806
L2C Translations Evicting Data 8644
L2C Data Evicting Data 159234
L2C Instructions Evicting Instructions 133163
L2C Translations Evicting Instructions 3524
L2C Data Evicting Instructions 96677
L2C Instructions Evicting Translations 3390
L2C Translations Evicting Translations 740
L2C Data Evicting Translations 8647
L2C Dense regions hint from L2: 0
PSCL5 TOTAL     ACCESS:      26011  HIT:      26011  MISS:          0  HIT %:        100  MISS %:          0   MPKI: 0
PSCL5 LOAD TRANSLATION ACCESS:      16038  HIT:      16038  MISS:          0  HIT %:        100  MISS %:          0   MPKI: 0
PSCL5 TRANSLATION FROM L1D PREFETCHER ACCESS:       9973  HIT:       9973  MISS:          0  HIT %:        100  MISS %:          0   MPKI: 0
PSCL5 PREFETCH  REQUESTED:          0  ISSUED:          0  USEFUL:          0  USELESS:          0
PSCL5 USEFUL LOAD PREFETCHES:          0 PREFETCH ISSUED TO LOWER LEVEL:          0  ACCURACY: -nan
PSCL5 TIMELY PREFETCHES:          0 LATE PREFETCHES: 0 DROPPED PREFETCHES: 0
PSCL5 PREFETCHES SAME FILL-ORIGIN LEVEL: 0 DIFFERENT FILL-ORIGIN LEVEL: 0

PSCL4 TOTAL     ACCESS:      24989  HIT:      24801  MISS:        188  HIT %:    99.2477  MISS %:   0.752331   MPKI: 0.00376
PSCL4 LOAD TRANSLATION ACCESS:      15168  HIT:      14980  MISS:        188  HIT %:    98.7605  MISS %:    1.23945   MPKI: 0.00376
PSCL4 TRANSLATION FROM L1D PREFETCHER ACCESS:       9821  HIT:       9821  MISS:          0  HIT %:        100  MISS %:          0   MPKI: 0
PSCL4 PREFETCH  REQUESTED:          0  ISSUED:          0  USEFUL:          0  USELESS:          0
PSCL4 USEFUL LOAD PREFETCHES:          0 PREFETCH ISSUED TO LOWER LEVEL:          0  ACCURACY: -nan
PSCL4 TIMELY PREFETCHES:          0 LATE PREFETCHES: 0 DROPPED PREFETCHES: 0
PSCL4 PREFETCHES SAME FILL-ORIGIN LEVEL: 0 DIFFERENT FILL-ORIGIN LEVEL: 0

PSCL3 TOTAL     ACCESS:      25808  HIT:      25620  MISS:        188  HIT %:    99.2715  MISS %:   0.728456   MPKI: 0.00376
PSCL3 LOAD TRANSLATION ACCESS:      15987  HIT:      15799  MISS:        188  HIT %:     98.824  MISS %:    1.17596   MPKI: 0.00376
PSCL3 TRANSLATION FROM L1D PREFETCHER ACCESS:       9821  HIT:       9821  MISS:          0  HIT %:        100  MISS %:          0   MPKI: 0
PSCL3 PREFETCH  REQUESTED:          0  ISSUED:          0  USEFUL:          0  USELESS:          0
PSCL3 USEFUL LOAD PREFETCHES:          0 PREFETCH ISSUED TO LOWER LEVEL:          0  ACCURACY: -nan
PSCL3 TIMELY PREFETCHES:          0 LATE PREFETCHES: 0 DROPPED PREFETCHES: 0
PSCL3 PREFETCHES SAME FILL-ORIGIN LEVEL: 0 DIFFERENT FILL-ORIGIN LEVEL: 0

PSCL2 TOTAL     ACCESS:      24450  HIT:      15498  MISS:       8952  HIT %:    63.3865  MISS %:    36.6135   MPKI: 0.17904
PSCL2 LOAD TRANSLATION ACCESS:      17394  HIT:       8442  MISS:       8952  HIT %:     48.534  MISS %:     51.466   MPKI: 0.17904
PSCL2 TRANSLATION FROM L1D PREFETCHER ACCESS:       7056  HIT:       7056  MISS:          0  HIT %:        100  MISS %:          0   MPKI: 0
PSCL2 PREFETCH  REQUESTED:          0  ISSUED:          0  USEFUL:          0  USELESS:          0
PSCL2 USEFUL LOAD PREFETCHES:          0 PREFETCH ISSUED TO LOWER LEVEL:          0  ACCURACY: -nan
PSCL2 TIMELY PREFETCHES:          0 LATE PREFETCHES: 0 DROPPED PREFETCHES: 0
PSCL2 PREFETCHES SAME FILL-ORIGIN LEVEL: 0 DIFFERENT FILL-ORIGIN LEVEL: 0

LLC TOTAL     ACCESS:     557930  HIT:     499279  MISS:      58651  HIT %:    89.4877  MISS %:    10.5123   MPKI: 1.17302
LLC LOAD      ACCESS:     116721  HIT:      98669  MISS:      18052  HIT %:    84.5341  MISS %:    15.4659   MPKI: 0.36104
LLC RFO       ACCESS:      28359  HIT:      26370  MISS:       1989  HIT %:    92.9864  MISS %:    7.01365   MPKI: 0.03978
LLC PREFETCH  ACCESS:     358837  HIT:     322334  MISS:      36503  HIT %:    89.8274  MISS %:    10.1726   MPKI: 0.73006
LLC WRITEBACK ACCESS:      41105  HIT:      40796  MISS:        309  HIT %:    99.2483  MISS %:   0.751733   MPKI: 0.00618
LLC LOAD TRANSLATION ACCESS:      11655  HIT:       9885  MISS:       1770  HIT %:    84.8134  MISS %:    15.1866   MPKI: 0.0354
LLC TRANSLATION FROM L1D PREFETCHER ACCESS:       1253  HIT:       1225  MISS:         28  HIT %:    97.7654  MISS %:    2.23464   MPKI: 0.00056
LLC PREFETCH  REQUESTED:          0  ISSUED:          0  USEFUL:       1493  USELESS:      35477
LLC USEFUL LOAD PREFETCHES:       1493 PREFETCH ISSUED TO LOWER LEVEL:      36503  ACCURACY: 4.09007
LLC TIMELY PREFETCHES:       1493 LATE PREFETCHES: 0 DROPPED PREFETCHES: 0
LLC PREFETCHES SAME FILL-ORIGIN LEVEL: 0 DIFFERENT FILL-ORIGIN LEVEL: 0
LLC AVERAGE MISS LATENCY: 148.455 cycles
LLC RQ	ACCESS:     157987	FORWARD:          0	MERGED:          0	TO_CACHE:     157987
LLC WQ	ACCESS:      41105	FORWARD:          0	MERGED:          0	TO_CACHE:      41105
LLC PQ	ACCESS:     358837	FORWARD:          0	MERGED:          0	TO_CACHE:     358837

LLC Dense regions hint to LLC: 0

RAW hits: 1080701
Loads Generated: 12289536
Loads sent to L1D: 11208830
Stores Generated: 6759292
Stores sent to L1D: 6759297
Major fault: 0 Minor fault: 6256
Allocated PAGES: 6256
I-Shadow cache 408 bytes
Touched + WorthPF tables 6144 bytes 
MMA filter 174 bytes 
FNL filter 272 bytes 
TOTAL PREFETCHER STORAGE SIZE: 25174 bytes
CPU 0 L1I next line prefetcher final stats

stream: 
stream:times selected: 1368865
stream:pref_filled: 148594
stream:pref_useful: 34053
stream:pref_late: 25850
stream:misses: 14835
stream:misses_by_poll: 0

CS: 
CS:times selected: 222844
CS:pref_filled: 150179
CS:pref_useful: 129004
CS:pref_late: 5318
CS:misses: 19064
CS:misses_by_poll: 27

CPLX: 
CPLX:times selected: 1144213
CPLX:pref_filled: 556708
CPLX:pref_useful: 328703
CPLX:pref_late: 15104
CPLX:misses: 162865
CPLX:misses_by_poll: 335

NL_L1: 
NL:times selected: 3286
NL:pref_filled: 95
NL:pref_useful: 19
NL:pref_late: 12
NL:misses: 114
NL:misses_by_poll: 0

total selections: 2739208
total_filled: 425416
total_useful: 247624
total_late: 58760
total_polluted: 362
total_misses_after_warmup: 956236
conflicts: 3266836
Degree Incremented Times: 61999
Degree Decremented Times: 56507

L1 IP Table Write Accesses: 4455029
L1 IP Table Read Accesses: 1188193
L1 RST Write Accesses: 660840
L1 RST Read Accesses: 1321680
L1 CSPT Write Accesses: 660840
L1 CSPT Read Accesses: 2130366
L1 RR Filter Tag Write Accesses: 664675
L1 RR Filter Tag Read Accesses: 56822917
L1 IP Table Tag Write Accesses: 7909815
L1 IP Table Tag Read Accesses: 7909815
L1 RST Tag Write Accesses: 0
L1 RST Tag Read Accesses: 5269075
L1 RR Filter Write Accesses: 0
L1 RR Filter Read Accesses: 2018608
test: 163307

DRAM Statistics
 CHANNEL 0
 RQ ROW_BUFFER_HIT:      17732  ROW_BUFFER_MISS:      40610
 DBUS_CONGESTED:         40
 WQ ROW_BUFFER_HIT:        830  ROW_BUFFER_MISS:       2706  FULL:          0

 AVG_CONGESTED_CYCLE: 5
 All warmup complete: 2
Channel 0 Bank busy for read cycles: 0
Channel 0 Bank busy for write cycles: 0
Channel 0
Rank 0
0banks busy for read cycles: 75729213
0banks busy for write cycles: 2118
1banks busy for read cycles: 1954449
1banks busy for write cycles: 390470
2banks busy for read cycles: 806196
2banks busy for write cycles: 125219
3banks busy for read cycles: 461446
3banks busy for write cycles: 43801
4banks busy for read cycles: 275322
4banks busy for write cycles: 19465
5banks busy for read cycles: 105594
5banks busy for write cycles: 4031
6banks busy for read cycles: 38205
6banks busy for write cycles: 1606
7banks busy for read cycles: 11918
7banks busy for write cycles: 323
8banks busy for read cycles: 10658
8banks busy for write cycles: 0

CPU 0 Branch Prediction Accuracy: 99.7093% MPKI: 0.54708 Average ROB Occupancy at Mispredict: 90.6539
Branch types
NOT_BRANCH: 40590650 81.1813%
BRANCH_DIRECT_JUMP: 523489 1.04698%
BRANCH_INDIRECT: 166997 0.333994%
BRANCH_CONDITIONAL: 6365151 12.7303%
BRANCH_DIRECT_CALL: 989486 1.97897%
BRANCH_INDIRECT_CALL: 187202 0.374404%
BRANCH_RETURN: 1176691 2.35338%
BRANCH_OTHER: 0 0%

DRAM PAGES: 1048576
Allocated PAGES: 6256
