
*** ChampSim Multicore Out-of-Order Simulator ***

Warmup Instructions: 50000000
Simulation Instructions: 50000000
Number of CPUs: 1
LLC sets: 2048
LLC ways: 16
Off-chip DRAM Size: 4096 MB Channels: 1 Width: 64-bit Data Rate: 6400 MT/s
CPU 0 runs ../IPC-traces//server_011.champsimtrace.xz
.xz
NUM_OF_IPS_IN_CRITICAL_IP_TRAINING: 64
NUM_OF_CRITICAL_IP_TRAINING_TABLE_WAYS: 2
NUM_OF_CRITICAL_IP_TRAINING_TABLE_SETS: 32
WOBBLY_CRITICAL_IP_CACHE_SETS: 32
WOBBLY_CRITICAL_IP_CACHE_WAYS: 4
BTB has LRU replacement policy
ITLB has LRU replacement policy
DTLB has LRU replacement policy
STLB has LRU replacement policy
CPU 0 L1I next line prefetcher
L1I has LRU replacement policy
IP Table Entries: 64
L1D has LRU replacement policy
Initialize SRRIP state for L2C
Initialize DRRIP state for LLC
Heartbeat CPU 0 instructions: 10000002 cycles: 2764023 heartbeat IPC: 3.61792 cumulative IPC: 3.61792 (Simulation time: 0 hr 2 min 57 sec) 
Heartbeat CPU 0 instructions: 20000002 cycles: 5526595 heartbeat IPC: 3.61982 cumulative IPC: 3.61887 (Simulation time: 0 hr 5 min 55 sec) 
Heartbeat CPU 0 instructions: 30000001 cycles: 8307740 heartbeat IPC: 3.59564 cumulative IPC: 3.61109 (Simulation time: 0 hr 8 min 55 sec) 
Heartbeat CPU 0 instructions: 40000003 cycles: 11065667 heartbeat IPC: 3.62591 cumulative IPC: 3.61478 (Simulation time: 0 hr 11 min 53 sec) 
Heartbeat CPU 0 instructions: 50000002 cycles: 13826909 heartbeat IPC: 3.62156 cumulative IPC: 3.61614 (Simulation time: 0 hr 14 min 51 sec) 

Warmup complete CPU 0 instructions: 50000002 cycles: 13826909 (Simulation time: 0 hr 14 min 51 sec) 

% increase in all ip prefetch 378.093
% increase in all ip prefetch 9.38801
% increase in all ip prefetch 7.12312
% increase in all ip prefetch -2.32556
Heartbeat CPU 0 instructions: 60000002 cycles: 28205944 heartbeat IPC: 0.695457 cumulative IPC: 0.695457 (Simulation time: 0 hr 17 min 59 sec) 
Heartbeat CPU 0 instructions: 70000001 cycles: 43491057 heartbeat IPC: 0.654231 cumulative IPC: 0.674214 (Simulation time: 0 hr 21 min 2 sec) 
Heartbeat CPU 0 instructions: 80000001 cycles: 60595258 heartbeat IPC: 0.584652 cumulative IPC: 0.641459 (Simulation time: 0 hr 23 min 55 sec) 
Heartbeat CPU 0 instructions: 90000001 cycles: 75382911 heartbeat IPC: 0.67624 cumulative IPC: 0.649815 (Simulation time: 0 hr 26 min 56 sec) 
Heartbeat CPU 0 instructions: 100000000 cycles: 89838245 heartbeat IPC: 0.691786 cumulative IPC: 0.657797 (Simulation time: 0 hr 29 min 54 sec) 
Finished CPU 0 instructions: 50000000 cycles: 76011351 cumulative IPC: 0.657797 (Simulation time: 0 hr 29 min 54 sec) 

ChampSim completed all CPUs

Region of Interest Statistics

CPU 0 cumulative IPC: 0.657797 instructions: 50000000 cycles: 76011351

CPU 0 Average Load ROB stall cycles: 2.01524e+07
CPU 0 Fraction of times ROB stalled by Loads: 38.9539
CPU 0 Percentage of Load stall cycles in Total stall cycles: 2.40332e+08
Issued all: 27636095
Issued LT all: 21575382
rob_not_full_when_issued_lt_all: 20763553
Issued LT one: 17074509
rob_not_full_when_issued_lt_one: 16356829
 Total stall cycles: 61618413
 Total load stall cycles: 148088788168649
CPU 0 NUM of IPS identified critical: 0
CPU 0 Num of Load IPs stalling ROB: 47148
Threshold modification factor: -3
Max PIST entries: 64
Min PIST entries: 0
Avg PIST entries: 32
Trouble in retire width: 0.891854
MaC = Marked as critical.
lt_50_percent_before_Mac: 0
gt_90_percent_before_Mac: 0
gt_75_percent_before_Mac: 0
gt_50_percent_before_Mac: 0
stall_proportion_bin_same_before_after: 0
stall_proportion_bin_lower_before_after: 0
stall_proportion_bin_upper_before_after: 0
average_stall_proportion_before: -nan
average_stall_proportion_after: -nan
Critical IP stalls, total frequency: 0
Non-critical IP stalls, total frequency: 2862507
Total Freq all stalling IPs: 2862507
stat_90_percent_critical_ip_stalls_freq: 2576248
stat_90_percent_non_critical_ip_stalls_freq: 286259
Critical_IP_ROB_Stalls_Bucket_0: 0
Non-critical_IP_ROB_Stalls_Bucket_0: 1631323
Critical_IP_ROB_Stalls_Bucket_1: 0
Non-critical_IP_ROB_Stalls_Bucket_1: 765873
Critical_IP_ROB_Stalls_Bucket_2: 0
Non-critical_IP_ROB_Stalls_Bucket_2: 274112
Critical_IP_ROB_Stalls_Bucket_3: 0
Non-critical_IP_ROB_Stalls_Bucket_3: 86730
Critical_IP_ROB_Stalls_Bucket_4: 0
Non-critical_IP_ROB_Stalls_Bucket_4: 40628
Critical_IP_ROB_Stalls_Bucket_5: 0
Non-critical_IP_ROB_Stalls_Bucket_5: 21669
Critical_IP_ROB_Stalls_Bucket_6: 0
Non-critical_IP_ROB_Stalls_Bucket_6: 42172
0 => IPs accounting for >50 percent of stalls, 1 => 55, 2 => 60, 3 => 65 and so on till 90.
percent50: 50.0188 num IPs:  602
percent55: 55.0117 num IPs: 856
percent60: 60.0122 num IPs: 1195
percent65: 65.001 num IPs: 1662
percent70: 70.0038 num IPs: 2341
percent75: 75.0028 num IPs: 3351
percent80: 80.0021 num IPs: 4778
percent85: 85.0006 num IPs: 6883
percent90: 90.0002 num IPs: 9862
Critical_ROB_Stalls_Percent_0_Bucket_0: 734096
Non-critical_ROB_Stalls_Percent_0_Bucket_0: 897227
Critical_ROB_Stalls_Percent_0_Bucket_1: 448873
Non-critical_ROB_Stalls_Percent_0_Bucket_1: 317000
Critical_ROB_Stalls_Percent_0_Bucket_2: 165157
Non-critical_ROB_Stalls_Percent_0_Bucket_2: 108955
Critical_ROB_Stalls_Percent_0_Bucket_3: 39734
Non-critical_ROB_Stalls_Percent_0_Bucket_3: 46996
Critical_ROB_Stalls_Percent_0_Bucket_4: 17574
Non-critical_ROB_Stalls_Percent_0_Bucket_4: 23054
Critical_ROB_Stalls_Percent_0_Bucket_5: 7670
Non-critical_ROB_Stalls_Percent_0_Bucket_5: 13999
Critical_ROB_Stalls_Percent_0_Bucket_6: 18689
Non-critical_ROB_Stalls_Percent_0_Bucket_6: 23483
Critical_ROB_Stalls_Percent_1_Bucket_0: 803133
Non-critical_ROB_Stalls_Percent_1_Bucket_0: 828190
Critical_ROB_Stalls_Percent_1_Bucket_1: 497367
Non-critical_ROB_Stalls_Percent_1_Bucket_1: 268506
Critical_ROB_Stalls_Percent_1_Bucket_2: 179498
Non-critical_ROB_Stalls_Percent_1_Bucket_2: 94614
Critical_ROB_Stalls_Percent_1_Bucket_3: 44780
Non-critical_ROB_Stalls_Percent_1_Bucket_3: 41950
Critical_ROB_Stalls_Percent_1_Bucket_4: 19711
Non-critical_ROB_Stalls_Percent_1_Bucket_4: 20917
Critical_ROB_Stalls_Percent_1_Bucket_5: 9605
Non-critical_ROB_Stalls_Percent_1_Bucket_5: 12064
Critical_ROB_Stalls_Percent_1_Bucket_6: 20622
Non-critical_ROB_Stalls_Percent_1_Bucket_6: 21550
Critical_ROB_Stalls_Percent_2_Bucket_0: 879465
Non-critical_ROB_Stalls_Percent_2_Bucket_0: 751858
Critical_ROB_Stalls_Percent_2_Bucket_1: 537738
Non-critical_ROB_Stalls_Percent_2_Bucket_1: 228135
Critical_ROB_Stalls_Percent_2_Bucket_2: 192021
Non-critical_ROB_Stalls_Percent_2_Bucket_2: 82091
Critical_ROB_Stalls_Percent_2_Bucket_3: 50300
Non-critical_ROB_Stalls_Percent_2_Bucket_3: 36430
Critical_ROB_Stalls_Percent_2_Bucket_4: 22633
Non-critical_ROB_Stalls_Percent_2_Bucket_4: 17995
Critical_ROB_Stalls_Percent_2_Bucket_5: 11907
Non-critical_ROB_Stalls_Percent_2_Bucket_5: 9762
Critical_ROB_Stalls_Percent_2_Bucket_6: 23789
Non-critical_ROB_Stalls_Percent_2_Bucket_6: 18383
Critical_ROB_Stalls_Percent_3_Bucket_0: 964732
Non-critical_ROB_Stalls_Percent_3_Bucket_0: 666591
Critical_ROB_Stalls_Percent_3_Bucket_1: 572542
Non-critical_ROB_Stalls_Percent_3_Bucket_1: 193331
Critical_ROB_Stalls_Percent_3_Bucket_2: 202762
Non-critical_ROB_Stalls_Percent_3_Bucket_2: 71350
Critical_ROB_Stalls_Percent_3_Bucket_3: 54954
Non-critical_ROB_Stalls_Percent_3_Bucket_3: 31776
Critical_ROB_Stalls_Percent_3_Bucket_4: 25141
Non-critical_ROB_Stalls_Percent_3_Bucket_4: 15487
Critical_ROB_Stalls_Percent_3_Bucket_5: 13942
Non-critical_ROB_Stalls_Percent_3_Bucket_5: 7727
Critical_ROB_Stalls_Percent_3_Bucket_6: 26585
Non-critical_ROB_Stalls_Percent_3_Bucket_6: 15587
Critical_ROB_Stalls_Percent_4_Bucket_0: 1049939
Non-critical_ROB_Stalls_Percent_4_Bucket_0: 581384
Critical_ROB_Stalls_Percent_4_Bucket_1: 607943
Non-critical_ROB_Stalls_Percent_4_Bucket_1: 157930
Critical_ROB_Stalls_Percent_4_Bucket_2: 215005
Non-critical_ROB_Stalls_Percent_4_Bucket_2: 59107
Critical_ROB_Stalls_Percent_4_Bucket_3: 59750
Non-critical_ROB_Stalls_Percent_4_Bucket_3: 26980
Critical_ROB_Stalls_Percent_4_Bucket_4: 27849
Non-critical_ROB_Stalls_Percent_4_Bucket_4: 12779
Critical_ROB_Stalls_Percent_4_Bucket_5: 15128
Non-critical_ROB_Stalls_Percent_4_Bucket_5: 6541
Critical_ROB_Stalls_Percent_4_Bucket_6: 28247
Non-critical_ROB_Stalls_Percent_4_Bucket_6: 13925
Critical_ROB_Stalls_Percent_5_Bucket_0: 1141738
Non-critical_ROB_Stalls_Percent_5_Bucket_0: 489585
Critical_ROB_Stalls_Percent_5_Bucket_1: 641167
Non-critical_ROB_Stalls_Percent_5_Bucket_1: 124706
Critical_ROB_Stalls_Percent_5_Bucket_2: 224339
Non-critical_ROB_Stalls_Percent_5_Bucket_2: 49773
Critical_ROB_Stalls_Percent_5_Bucket_3: 63844
Non-critical_ROB_Stalls_Percent_5_Bucket_3: 22886
Critical_ROB_Stalls_Percent_5_Bucket_4: 30215
Non-critical_ROB_Stalls_Percent_5_Bucket_4: 10413
Critical_ROB_Stalls_Percent_5_Bucket_5: 16139
Non-critical_ROB_Stalls_Percent_5_Bucket_5: 5530
Critical_ROB_Stalls_Percent_5_Bucket_6: 29516
Non-critical_ROB_Stalls_Percent_5_Bucket_6: 12656
Critical_ROB_Stalls_Percent_6_Bucket_0: 1229587
Non-critical_ROB_Stalls_Percent_6_Bucket_0: 401736
Critical_ROB_Stalls_Percent_6_Bucket_1: 674348
Non-critical_ROB_Stalls_Percent_6_Bucket_1: 91525
Critical_ROB_Stalls_Percent_6_Bucket_2: 236262
Non-critical_ROB_Stalls_Percent_6_Bucket_2: 37850
Critical_ROB_Stalls_Percent_6_Bucket_3: 68921
Non-critical_ROB_Stalls_Percent_6_Bucket_3: 17809
Critical_ROB_Stalls_Percent_6_Bucket_4: 32882
Non-critical_ROB_Stalls_Percent_6_Bucket_4: 7746
Critical_ROB_Stalls_Percent_6_Bucket_5: 17110
Non-critical_ROB_Stalls_Percent_6_Bucket_5: 4559
Critical_ROB_Stalls_Percent_6_Bucket_6: 30952
Non-critical_ROB_Stalls_Percent_6_Bucket_6: 11220
Critical_ROB_Stalls_Percent_7_Bucket_0: 1320692
Non-critical_ROB_Stalls_Percent_7_Bucket_0: 310631
Critical_ROB_Stalls_Percent_7_Bucket_1: 699856
Non-critical_ROB_Stalls_Percent_7_Bucket_1: 66017
Critical_ROB_Stalls_Percent_7_Bucket_2: 246668
Non-critical_ROB_Stalls_Percent_7_Bucket_2: 27444
Critical_ROB_Stalls_Percent_7_Bucket_3: 73866
Non-critical_ROB_Stalls_Percent_7_Bucket_3: 12864
Critical_ROB_Stalls_Percent_7_Bucket_4: 35584
Non-critical_ROB_Stalls_Percent_7_Bucket_4: 5044
Critical_ROB_Stalls_Percent_7_Bucket_5: 18906
Non-critical_ROB_Stalls_Percent_7_Bucket_5: 2763
Critical_ROB_Stalls_Percent_7_Bucket_6: 37568
Non-critical_ROB_Stalls_Percent_7_Bucket_6: 4604
Critical_ROB_Stalls_Percent_8_Bucket_0: 1418319
Non-critical_ROB_Stalls_Percent_8_Bucket_0: 213004
Critical_ROB_Stalls_Percent_8_Bucket_1: 725641
Non-critical_ROB_Stalls_Percent_8_Bucket_1: 40232
Critical_ROB_Stalls_Percent_8_Bucket_2: 256552
Non-critical_ROB_Stalls_Percent_8_Bucket_2: 17560
Critical_ROB_Stalls_Percent_8_Bucket_3: 79057
Non-critical_ROB_Stalls_Percent_8_Bucket_3: 7673
Critical_ROB_Stalls_Percent_8_Bucket_4: 37241
Non-critical_ROB_Stalls_Percent_8_Bucket_4: 3387
Critical_ROB_Stalls_Percent_8_Bucket_5: 19864
Non-critical_ROB_Stalls_Percent_8_Bucket_5: 1805
Critical_ROB_Stalls_Percent_8_Bucket_6: 39574
Non-critical_ROB_Stalls_Percent_8_Bucket_6: 2598
Average ROB occupancy Load Stall Begin: 50.251
Average ROB occupancy Load Stall End: 60.8985
Min ROB occupancy Load Stall Begin: 1
Max ROB occupancy Load Stall Begin: 352
Min ROB occupancy Load Stall End: 1
Max ROB occupancy Load Stall End: 352
Average ROB occupancy Critical Load Stall Begin: -nan
Average ROB occupancy Critical Load Stall End: -nan
Min ROB occupancy Critical Load Stall Begin: 400
Max ROB occupancy Critical Load Stall Begin: 0
Min ROB occupancy Critical Load Stall End: 400
Max ROB occupancy Critical Load Stall End: 0
 ROB Load Stall Begin Bucket Count 0: 1926607
 ROB Load Stall End Bucket Count 0: 1631323
 ROB Critical Load Stall Begin Bucket Count 0: 0
 ROB Critical Load Stall End Bucket Count 0: 0
 ROB Load Stall Begin Bucket Count 1: 578879
 ROB Load Stall End Bucket Count 1: 765873
 ROB Critical Load Stall Begin Bucket Count 1: 0
 ROB Critical Load Stall End Bucket Count 1: 0
 ROB Load Stall Begin Bucket Count 2: 207892
 ROB Load Stall End Bucket Count 2: 274112
 ROB Critical Load Stall Begin Bucket Count 2: 0
 ROB Critical Load Stall End Bucket Count 2: 0
 ROB Load Stall Begin Bucket Count 3: 63922
 ROB Load Stall End Bucket Count 3: 86730
 ROB Critical Load Stall Begin Bucket Count 3: 0
 ROB Critical Load Stall End Bucket Count 3: 0
 ROB Load Stall Begin Bucket Count 4: 30771
 ROB Load Stall End Bucket Count 4: 40628
 ROB Critical Load Stall Begin Bucket Count 4: 0
 ROB Critical Load Stall End Bucket Count 4: 0
 ROB Load Stall Begin Bucket Count 5: 18408
 ROB Load Stall End Bucket Count 5: 21669
 ROB Critical Load Stall Begin Bucket Count 5: 0
 ROB Critical Load Stall End Bucket Count 5: 0
 ROB Load Stall Begin Bucket Count 6: 36028
 ROB Load Stall End Bucket Count 6: 42172
 ROB Critical Load Stall Begin Bucket Count 6: 0
 ROB Critical Load Stall End Bucket Count 6: 0
PIST Tag Read Accesses: 4267016
PIST Read Accesses: 2133508
PIST Tag Write Accesses: 4267016
PIST Write Accesses: 2133508
Criticality detector called times: 2781440
Max global_stall_cycles_count: 3454905
Threshold Modified: 3 times, factor: -3
Sturdy critical IP cache stats: 
 Unused entries: 0
CIC Tag Read Accesses: 0
CIC Read Accesses: 0
CIC Tag Write Accesses: 0
CIC Write Accesses: 0
Wobbly critical IP cache stats: 
 Unused entries: 69
CIC Tag Read Accesses: 71368984
CIC Read Accesses: 0
CIC Tag Write Accesses: 2026
CIC Write Accesses: 0
ITLB TOTAL     ACCESS:    9075981  HIT:    8854573  MISS:     221408  HIT %:    97.5605  MISS %:    2.43949   MPKI: 4.42816
ITLB LOAD TRANSLATION ACCESS:    7872034  HIT:    7798309  MISS:      73725  HIT %:    99.0635  MISS %:   0.936543   MPKI: 1.4745
ITLB TRANSLATION FROM L1D PREFETCHER ACCESS:    1203947  HIT:    1056264  MISS:     147683  HIT %:    87.7334  MISS %:    12.2666   MPKI: 2.95366
ITLB PREFETCH  REQUESTED:          0  ISSUED:          0  USEFUL:     117567  USELESS:      30118
ITLB USEFUL LOAD PREFETCHES:     117567 PREFETCH ISSUED TO LOWER LEVEL:          0  ACCURACY: inf
ITLB TIMELY PREFETCHES:     117567 LATE PREFETCHES: 835 DROPPED PREFETCHES: 5225
ITLB PREFETCHES SAME FILL-ORIGIN LEVEL: 0 DIFFERENT FILL-ORIGIN LEVEL: 0
ITLB AVERAGE MISS LATENCY: 202166 cycles
ITLB RQ	ACCESS:   12416042	FORWARD:          0	MERGED:    3303253	TO_CACHE:    9112789

DTLB TOTAL     ACCESS:    9683347  HIT:    9107920  MISS:     575427  HIT %:    94.0576  MISS %:    5.94244   MPKI: 11.5085
DTLB LOAD TRANSLATION ACCESS:    9683347  HIT:    9107920  MISS:     575427  HIT %:    94.0576  MISS %:    5.94244   MPKI: 11.5085
DTLB PREFETCH  REQUESTED:          0  ISSUED:          0  USEFUL:          0  USELESS:          0
DTLB USEFUL LOAD PREFETCHES:          0 PREFETCH ISSUED TO LOWER LEVEL:          0  ACCURACY: -nan
DTLB TIMELY PREFETCHES:          0 LATE PREFETCHES: 0 DROPPED PREFETCHES: 0
DTLB PREFETCHES SAME FILL-ORIGIN LEVEL: 0 DIFFERENT FILL-ORIGIN LEVEL: 0
DTLB AVERAGE MISS LATENCY: 15.1045 cycles
DTLB RQ	ACCESS:   12237246	FORWARD:          0	MERGED:    2517176	TO_CACHE:    9720070

STLB TOTAL     ACCESS:     811127  HIT:     708220  MISS:     102907  HIT %:    87.3131  MISS %:    12.6869   MPKI: 2.05814
STLB LOAD TRANSLATION ACCESS:     648317  HIT:     567944  MISS:      80373  HIT %:    87.6028  MISS %:    12.3972   MPKI: 1.60746
STLB TRANSLATION FROM L1D PREFETCHER ACCESS:     162810  HIT:     140276  MISS:      22534  HIT %:    86.1593  MISS %:    13.8407   MPKI: 0.45068
STLB PREFETCH  REQUESTED:          0  ISSUED:          0  USEFUL:      13383  USELESS:       9161
STLB USEFUL LOAD PREFETCHES:      13383 PREFETCH ISSUED TO LOWER LEVEL:          0  ACCURACY: inf
STLB TIMELY PREFETCHES:      13383 LATE PREFETCHES: 10 DROPPED PREFETCHES: 5225
STLB PREFETCHES SAME FILL-ORIGIN LEVEL: 0 DIFFERENT FILL-ORIGIN LEVEL: 0
STLB AVERAGE MISS LATENCY: 48.3456 cycles
STLB RQ	ACCESS:     819449	FORWARD:          0	MERGED:       3087	TO_CACHE:     816362

STLB Hit, L1D data hit: 0
STLB Hit, L2C data hit: 0
STLB Hit, LLC data hit: 0
STLB Hit, LLC data miss: 0
STLB STLB hints to L2: 0
L1D TOTAL     ACCESS:   12085679  HIT:   11447391  MISS:     638288  HIT %:    94.7186  MISS %:    5.28136   MPKI: 12.7658
L1D LOAD      ACCESS:    7233662  HIT:    6694284  MISS:     539378  HIT %:    92.5435  MISS %:     7.4565   MPKI: 10.7876
L1D RFO       ACCESS:    4835504  HIT:    4744285  MISS:      91219  HIT %:    98.1136  MISS %:    1.88644   MPKI: 1.82438
L1D PREFETCH  ACCESS:      16513  HIT:       8822  MISS:       7691  HIT %:    53.4246  MISS %:    46.5754   MPKI: 0.15382
L1D PREFETCH  REQUESTED:      34795  ISSUED:      34782  USEFUL:       3134  USELESS:       4603
L1D USEFUL LOAD PREFETCHES:       3134 PREFETCH ISSUED TO LOWER LEVEL:       8089  ACCURACY: 38.744
L1D TIMELY PREFETCHES:       3134 LATE PREFETCHES: 398 DROPPED PREFETCHES: 0
L1D PREFETCHES SAME FILL-ORIGIN LEVEL: 8089 DIFFERENT FILL-ORIGIN LEVEL: 0
L1D AVERAGE MISS LATENCY: 15774.6 cycles
L1D RQ	ACCESS:   11100696	FORWARD:          0	MERGED:    3745846	TO_CACHE:    7274296
L1D WQ	ACCESS:    5073610	FORWARD:      80558	MERGED:     110660	TO_CACHE:    4962950
L1D PQ	ACCESS:      17393	FORWARD:          0	MERGED:          0	TO_CACHE:      17389

L1D UNIQUE REGIONS ACCESSED: 0
L1D REGIONS CONFLICTS: 0
L1D Cross Page Prefetch Requests: 0
L1D Same Page Prefetch Requests: 139089
L1D ROI Sum of L1D PQ occupancy: 227788
L1D PREFETCHES PUSHED FROM L2C: 0
L1I TOTAL     ACCESS:   12260312  HIT:   10386292  MISS:    1874020  HIT %:    84.7147  MISS %:    15.2853   MPKI: 37.4804
L1I LOAD      ACCESS:    9553596  HIT:    9279467  MISS:     274129  HIT %:    97.1306  MISS %:    2.86938   MPKI: 5.48258
L1I PREFETCH  ACCESS:    2706716  HIT:    1106825  MISS:    1599891  HIT %:    40.8918  MISS %:    59.1082   MPKI: 31.9978
L1I PREFETCH  REQUESTED:    2937292  ISSUED:    2930169  USEFUL:    1045553  USELESS:     554312
L1I USEFUL LOAD PREFETCHES:    1045553 PREFETCH ISSUED TO LOWER LEVEL:    1632131  ACCURACY: 64.0606
L1I TIMELY PREFETCHES:    1045553 LATE PREFETCHES: 32240 DROPPED PREFETCHES: 17183
L1I PREFETCHES SAME FILL-ORIGIN LEVEL: 1632131 DIFFERENT FILL-ORIGIN LEVEL: 0
L1I AVERAGE MISS LATENCY: 887471 cycles
L1I RQ	ACCESS:   13821903	FORWARD:          0	MERGED:    4241311	TO_CACHE:    9580592
L1I PQ	ACCESS:    2930169	FORWARD:          0	MERGED:      94719	TO_CACHE:    2835450

BTB TOTAL     ACCESS:    5007119  HIT:    4225540  MISS:     781579  HIT %:    84.3906  MISS %:    15.6094   MPKI: 15.6316
BTB BRANCH_DIRECT_JUMP	ACCESS:     451601  HIT:     395730  MISS:      55871
BTB BRANCH_INDIRECT	ACCESS:     151580  HIT:     115440  MISS:      36140
BTB BRANCH_CONDITIONAL	ACCESS:    2656300  HIT:    2427735  MISS:     228565
BTB BRANCH_DIRECT_CALL	ACCESS:     647826  HIT:     542970  MISS:     104856
BTB BRANCH_INDIRECT_CALL	ACCESS:     211373  HIT:     173798  MISS:      37575
BTB BRANCH_RETURN	ACCESS:     888439  HIT:     569867  MISS:     318572
BTB BRANCH_OTHER ACCESS:          0  HIT:          0  MISS:          0

L2C TOTAL     ACCESS:    2901598  HIT:    1832532  MISS:    1069066  HIT %:     63.156  MISS %:     36.844   MPKI: 21.3813
L2C LOAD      ACCESS:     780857  HIT:     405243  MISS:     375614  HIT %:    51.8972  MISS %:    48.1028   MPKI: 7.51228
L2C DATA LOAD MPKI: 5.58378
L2C INSTRUCTION LOAD MPKI: 1.9285
L2C RFO       ACCESS:      91212  HIT:      41478  MISS:      49734  HIT %:    45.4743  MISS %:    54.5257   MPKI: 0.99468
L2C PREFETCH  ACCESS:    1640211  HIT:    1068330  MISS:     571881  HIT %:    65.1337  MISS %:    34.8663   MPKI: 11.4376
L2C DATA PREFETCH MPKI: 0.11182
L2C INSTRUCTION PREFETCH MPKI: 11.3258
L2C WRITEBACK ACCESS:     249360  HIT:     230092  MISS:      19268  HIT %:     92.273  MISS %:    7.72698   MPKI: 0.38536
L2C LOAD TRANSLATION ACCESS:     105552  HIT:      61181  MISS:      44371  HIT %:    57.9629  MISS %:    42.0371   MPKI: 0.88742
L2C TRANSLATION FROM L1D PREFETCHER ACCESS:      34406  HIT:      26208  MISS:       8198  HIT %:    76.1728  MISS %:    23.8272   MPKI: 0.16396
L2C PREFETCH  REQUESTED:          0  ISSUED:          0  USEFUL:      17928  USELESS:     562347
L2C USEFUL LOAD PREFETCHES:      17928 PREFETCH ISSUED TO LOWER LEVEL:     571881  ACCURACY: 3.13492
L2C TIMELY PREFETCHES:      17928 LATE PREFETCHES: 0 DROPPED PREFETCHES: 0
L2C PREFETCHES SAME FILL-ORIGIN LEVEL: 0 DIFFERENT FILL-ORIGIN LEVEL: 0
L2C AVERAGE MISS LATENCY: 44.7922 cycles
L2C RQ	ACCESS:    1012046	FORWARD:          0	MERGED:          0	TO_CACHE:    1012027
L2C WQ	ACCESS:     249360	FORWARD:         19	MERGED:          0	TO_CACHE:     249360
L2C PQ	ACCESS:    1640220	FORWARD:          0	MERGED:          0	TO_CACHE:    1640220

L2C Instructions Evicting Data 218590
L2C Translations Evicting Data 17631
L2C Data Evicting Data 111278
L2C Instructions Evicting Instructions 412142
L2C Translations Evicting Instructions 32230
L2C Data Evicting Instructions 206193
L2C Instructions Evicting Translations 31983
L2C Translations Evicting Translations 2708
L2C Data Evicting Translations 17043
L2C Dense regions hint from L2: 0
PSCL5 TOTAL     ACCESS:     108132  HIT:     108132  MISS:          0  HIT %:        100  MISS %:          0   MPKI: 0
PSCL5 LOAD TRANSLATION ACCESS:      80363  HIT:      80363  MISS:          0  HIT %:        100  MISS %:          0   MPKI: 0
PSCL5 TRANSLATION FROM L1D PREFETCHER ACCESS:      27769  HIT:      27769  MISS:          0  HIT %:        100  MISS %:          0   MPKI: 0
PSCL5 PREFETCH  REQUESTED:          0  ISSUED:          0  USEFUL:          0  USELESS:          0
PSCL5 USEFUL LOAD PREFETCHES:          0 PREFETCH ISSUED TO LOWER LEVEL:          0  ACCURACY: -nan
PSCL5 TIMELY PREFETCHES:          0 LATE PREFETCHES: 0 DROPPED PREFETCHES: 0
PSCL5 PREFETCHES SAME FILL-ORIGIN LEVEL: 0 DIFFERENT FILL-ORIGIN LEVEL: 0

PSCL4 TOTAL     ACCESS:     100303  HIT:     100024  MISS:        279  HIT %:    99.7218  MISS %:   0.278157   MPKI: 0.00558
PSCL4 LOAD TRANSLATION ACCESS:      74619  HIT:      74340  MISS:        279  HIT %:    99.6261  MISS %:   0.373899   MPKI: 0.00558
PSCL4 TRANSLATION FROM L1D PREFETCHER ACCESS:      25684  HIT:      25684  MISS:          0  HIT %:        100  MISS %:          0   MPKI: 0
PSCL4 PREFETCH  REQUESTED:          0  ISSUED:          0  USEFUL:          0  USELESS:          0
PSCL4 USEFUL LOAD PREFETCHES:          0 PREFETCH ISSUED TO LOWER LEVEL:          0  ACCURACY: -nan
PSCL4 TIMELY PREFETCHES:          0 LATE PREFETCHES: 0 DROPPED PREFETCHES: 0
PSCL4 PREFETCHES SAME FILL-ORIGIN LEVEL: 0 DIFFERENT FILL-ORIGIN LEVEL: 0

PSCL3 TOTAL     ACCESS:     106386  HIT:     105531  MISS:        855  HIT %:    99.1963  MISS %:   0.803677   MPKI: 0.0171
PSCL3 LOAD TRANSLATION ACCESS:      79851  HIT:      78996  MISS:        855  HIT %:    98.9293  MISS %:    1.07074   MPKI: 0.0171
PSCL3 TRANSLATION FROM L1D PREFETCHER ACCESS:      26535  HIT:      26535  MISS:          0  HIT %:        100  MISS %:          0   MPKI: 0
PSCL3 PREFETCH  REQUESTED:          0  ISSUED:          0  USEFUL:          0  USELESS:          0
PSCL3 USEFUL LOAD PREFETCHES:          0 PREFETCH ISSUED TO LOWER LEVEL:          0  ACCURACY: -nan
PSCL3 TIMELY PREFETCHES:          0 LATE PREFETCHES: 0 DROPPED PREFETCHES: 0
PSCL3 PREFETCHES SAME FILL-ORIGIN LEVEL: 0 DIFFERENT FILL-ORIGIN LEVEL: 0

PSCL2 TOTAL     ACCESS:     105530  HIT:      78027  MISS:      27503  HIT %:    73.9382  MISS %:    26.0618   MPKI: 0.55006
PSCL2 LOAD TRANSLATION ACCESS:      83554  HIT:      56051  MISS:      27503  HIT %:    67.0836  MISS %:    32.9164   MPKI: 0.55006
PSCL2 TRANSLATION FROM L1D PREFETCHER ACCESS:      21976  HIT:      21976  MISS:          0  HIT %:        100  MISS %:          0   MPKI: 0
PSCL2 PREFETCH  REQUESTED:          0  ISSUED:          0  USEFUL:          0  USELESS:          0
PSCL2 USEFUL LOAD PREFETCHES:          0 PREFETCH ISSUED TO LOWER LEVEL:          0  ACCURACY: -nan
PSCL2 TIMELY PREFETCHES:          0 LATE PREFETCHES: 0 DROPPED PREFETCHES: 0
PSCL2 PREFETCHES SAME FILL-ORIGIN LEVEL: 0 DIFFERENT FILL-ORIGIN LEVEL: 0

LLC TOTAL     ACCESS:    1175045  HIT:    1069231  MISS:     105814  HIT %:    90.9949  MISS %:     9.0051   MPKI: 2.11628
LLC LOAD      ACCESS:     375613  HIT:     315593  MISS:      60020  HIT %:    84.0208  MISS %:    15.9792   MPKI: 1.2004
LLC RFO       ACCESS:      49734  HIT:      30348  MISS:      19386  HIT %:    61.0206  MISS %:    38.9794   MPKI: 0.38772
LLC PREFETCH  ACCESS:     571881  HIT:     549698  MISS:      22183  HIT %:     96.121  MISS %:    3.87895   MPKI: 0.44366
LLC WRITEBACK ACCESS:     125248  HIT:     123200  MISS:       2048  HIT %:    98.3648  MISS %:    1.63516   MPKI: 0.04096
LLC LOAD TRANSLATION ACCESS:      44371  HIT:      42305  MISS:       2066  HIT %:    95.3438  MISS %:    4.65619   MPKI: 0.04132
LLC TRANSLATION FROM L1D PREFETCHER ACCESS:       8198  HIT:       8087  MISS:        111  HIT %:     98.646  MISS %:    1.35399   MPKI: 0.00222
LLC PREFETCH  REQUESTED:          0  ISSUED:          0  USEFUL:       1663  USELESS:      20018
LLC USEFUL LOAD PREFETCHES:       1663 PREFETCH ISSUED TO LOWER LEVEL:      22183  ACCURACY: 7.49673
LLC TIMELY PREFETCHES:       1663 LATE PREFETCHES: 0 DROPPED PREFETCHES: 0
LLC PREFETCHES SAME FILL-ORIGIN LEVEL: 0 DIFFERENT FILL-ORIGIN LEVEL: 0
LLC AVERAGE MISS LATENCY: 154.209 cycles
LLC RQ	ACCESS:     477917	FORWARD:          0	MERGED:          0	TO_CACHE:     477916
LLC WQ	ACCESS:     125248	FORWARD:          1	MERGED:          0	TO_CACHE:     125248
LLC PQ	ACCESS:     571881	FORWARD:          0	MERGED:          0	TO_CACHE:     571881

LLC Dense regions hint to LLC: 0

RAW hits: 995974
Loads Generated: 12096670
Loads sent to L1D: 11100696
Stores Generated: 5073603
Stores sent to L1D: 5073610
Major fault: 0 Minor fault: 7361
Allocated PAGES: 7361
I-Shadow cache 408 bytes
Touched + WorthPF tables 6144 bytes 
MMA filter 174 bytes 
FNL filter 272 bytes 
TOTAL PREFETCHER STORAGE SIZE: 25174 bytes
CPU 0 L1I next line prefetcher final stats

stream: 
stream:times selected: 432380
stream:pref_filled: 38532
stream:pref_useful: 10610
stream:pref_late: 1177
stream:misses: 6303
stream:misses_by_poll: 0

CS: 
CS:times selected: 41603
CS:pref_filled: 17075
CS:pref_useful: 14836
CS:pref_late: 864
CS:misses: 10917
CS:misses_by_poll: 0

CPLX: 
CPLX:times selected: 387669
CPLX:pref_filled: 14226
CPLX:pref_useful: 1991
CPLX:pref_late: 347
CPLX:misses: 37790
CPLX:misses_by_poll: 0

NL_L1: 
NL:times selected: 3079
NL:pref_filled: 495
NL:pref_useful: 34
NL:pref_late: 10
NL:misses: 414
NL:misses_by_poll: 0

total selections: 864731
total_filled: 7691
total_useful: 3134
total_late: 2453
total_polluted: 0
total_misses_after_warmup: 580012
conflicts: 2938205
Degree Incremented Times: 66711
Degree Decremented Times: 94419

L1 IP Table Write Accesses: 4043401
L1 IP Table Read Accesses: 1105196
L1 RST Write Accesses: 265222
L1 RST Read Accesses: 530444
L1 CSPT Write Accesses: 265222
L1 CSPT Read Accesses: 509692
L1 RR Filter Tag Write Accesses: 17406
L1 RR Filter Tag Read Accesses: 1328541
L1 IP Table Tag Write Accesses: 7274296
L1 IP Table Tag Read Accesses: 7274296
L1 RST Tag Write Accesses: 0
L1 RST Tag Read Accesses: 2436930
L1 RR Filter Write Accesses: 0
L1 RR Filter Read Accesses: 48790
test: 137093

DRAM Statistics
 CHANNEL 0
 RQ ROW_BUFFER_HIT:      20104  ROW_BUFFER_MISS:      83662
 DBUS_CONGESTED:         74
 WQ ROW_BUFFER_HIT:      11853  ROW_BUFFER_MISS:      45486  FULL:          0

 AVG_CONGESTED_CYCLE: 4
 All warmup complete: 2
Channel 0 Bank busy for read cycles: 0
Channel 0 Bank busy for write cycles: 0
Channel 0
Rank 0
0banks busy for read cycles: 61248428
0banks busy for write cycles: 24246
1banks busy for read cycles: 6599532
1banks busy for write cycles: 3394630
2banks busy for read cycles: 1527007
2banks busy for write cycles: 1073691
3banks busy for read cycles: 434192
3banks busy for write cycles: 439126
4banks busy for read cycles: 200449
4banks busy for write cycles: 229147
5banks busy for read cycles: 117011
5banks busy for write cycles: 153188
6banks busy for read cycles: 112533
6banks busy for write cycles: 118130
7banks busy for read cycles: 50560
7banks busy for write cycles: 105612
8banks busy for read cycles: 23495
8banks busy for write cycles: 160375

CPU 0 Branch Prediction Accuracy: 97.5565% MPKI: 4.59006 Average ROB Occupancy at Mispredict: 38.3969
Branch types
NOT_BRANCH: 40607200 81.2144%
BRANCH_DIRECT_JUMP: 451601 0.903202%
BRANCH_INDIRECT: 151580 0.30316%
BRANCH_CONDITIONAL: 7041635 14.0833%
BRANCH_DIRECT_CALL: 647826 1.29565%
BRANCH_INDIRECT_CALL: 211373 0.422746%
BRANCH_RETURN: 888439 1.77688%
BRANCH_OTHER: 0 0%

DRAM PAGES: 1048576
Allocated PAGES: 7361
