
*** ChampSim Multicore Out-of-Order Simulator ***

Warmup Instructions: 50000000
Simulation Instructions: 50000000
Number of CPUs: 1
LLC sets: 2048
LLC ways: 16
Off-chip DRAM Size: 4096 MB Channels: 1 Width: 64-bit Data Rate: 6400 MT/s
CPU 0 runs ../IPC-traces//server_038.champsimtrace.xz
.xz
NUM_OF_IPS_IN_CRITICAL_IP_TRAINING: 64
NUM_OF_CRITICAL_IP_TRAINING_TABLE_WAYS: 2
NUM_OF_CRITICAL_IP_TRAINING_TABLE_SETS: 32
WOBBLY_CRITICAL_IP_CACHE_SETS: 32
WOBBLY_CRITICAL_IP_CACHE_WAYS: 4
BTB has LRU replacement policy
ITLB has LRU replacement policy
DTLB has LRU replacement policy
STLB has LRU replacement policy
CPU 0 L1I next line prefetcher
L1I has LRU replacement policy
IP Table Entries: 64
L1D has LRU replacement policy
Initialize SRRIP state for L2C
Initialize DRRIP state for LLC
Heartbeat CPU 0 instructions: 10000001 cycles: 2750103 heartbeat IPC: 3.63623 cumulative IPC: 3.63623 (Simulation time: 0 hr 4 min 42 sec) 
Heartbeat CPU 0 instructions: 20000002 cycles: 5498563 heartbeat IPC: 3.6384 cumulative IPC: 3.63731 (Simulation time: 0 hr 9 min 6 sec) 
Heartbeat CPU 0 instructions: 30000003 cycles: 8245339 heartbeat IPC: 3.64063 cumulative IPC: 3.63842 (Simulation time: 0 hr 13 min 4 sec) 
Heartbeat CPU 0 instructions: 40000001 cycles: 10993159 heartbeat IPC: 3.63925 cumulative IPC: 3.63863 (Simulation time: 0 hr 16 min 55 sec) 
Heartbeat CPU 0 instructions: 50000003 cycles: 13741800 heartbeat IPC: 3.63816 cumulative IPC: 3.63853 (Simulation time: 0 hr 20 min 42 sec) 

Warmup complete CPU 0 instructions: 50000003 cycles: 13741800 (Simulation time: 0 hr 20 min 42 sec) 

% increase in all ip prefetch 289.228
% increase in all ip prefetch -2.16827
Heartbeat CPU 0 instructions: 60000000 cycles: 25232183 heartbeat IPC: 0.870293 cumulative IPC: 0.870293 (Simulation time: 0 hr 24 min 6 sec) 
Heartbeat CPU 0 instructions: 70000001 cycles: 36658421 heartbeat IPC: 0.875179 cumulative IPC: 0.872729 (Simulation time: 0 hr 27 min 26 sec) 
Heartbeat CPU 0 instructions: 80000002 cycles: 48099219 heartbeat IPC: 0.874065 cumulative IPC: 0.873174 (Simulation time: 0 hr 30 min 48 sec) 
Heartbeat CPU 0 instructions: 90000001 cycles: 59537695 heartbeat IPC: 0.874242 cumulative IPC: 0.873441 (Simulation time: 0 hr 34 min 9 sec) 
*** Reached end of trace for Core: 0 Repeating trace: ../IPC-traces//server_038.champsimtrace.xz
Heartbeat CPU 0 instructions: 100000002 cycles: 70985388 heartbeat IPC: 0.873539 cumulative IPC: 0.87346 (Simulation time: 0 hr 38 min 16 sec) 
Finished CPU 0 instructions: 50000003 cycles: 57243589 cumulative IPC: 0.87346 (Simulation time: 0 hr 38 min 16 sec) 

ChampSim completed all CPUs

Region of Interest Statistics

CPU 0 cumulative IPC: 0.87346 instructions: 50000003 cycles: 57243589

CPU 0 Average Load ROB stall cycles: 1.47005e+07
CPU 0 Fraction of times ROB stalled by Loads: 34.6988
CPU 0 Percentage of Load stall cycles in Total stall cycles: 2.2625e+08
Issued all: 25195413
Issued LT all: 19452766
rob_not_full_when_issued_lt_all: 19273704
Issued LT one: 14452546
rob_not_full_when_issued_lt_one: 14286247
 Total stall cycles: 45590006
 Total load stall cycles: 103147581582631
CPU 0 NUM of IPS identified critical: 0
CPU 0 Num of Load IPs stalling ROB: 4305
Threshold modification factor: -1
Max PIST entries: 64
Min PIST entries: 0
Avg PIST entries: 32
Trouble in retire width: 0.810664
MaC = Marked as critical.
lt_50_percent_before_Mac: 0
gt_90_percent_before_Mac: 0
gt_75_percent_before_Mac: 0
gt_50_percent_before_Mac: 0
stall_proportion_bin_same_before_after: 0
stall_proportion_bin_lower_before_after: 0
stall_proportion_bin_upper_before_after: 0
average_stall_proportion_before: -nan
average_stall_proportion_after: -nan
Critical IP stalls, total frequency: 0
Non-critical IP stalls, total frequency: 2434679
Total Freq all stalling IPs: 2434679
stat_90_percent_critical_ip_stalls_freq: 2191454
stat_90_percent_non_critical_ip_stalls_freq: 243225
Critical_IP_ROB_Stalls_Bucket_0: 0
Non-critical_IP_ROB_Stalls_Bucket_0: 1093727
Critical_IP_ROB_Stalls_Bucket_1: 0
Non-critical_IP_ROB_Stalls_Bucket_1: 889584
Critical_IP_ROB_Stalls_Bucket_2: 0
Non-critical_IP_ROB_Stalls_Bucket_2: 319777
Critical_IP_ROB_Stalls_Bucket_3: 0
Non-critical_IP_ROB_Stalls_Bucket_3: 90691
Critical_IP_ROB_Stalls_Bucket_4: 0
Non-critical_IP_ROB_Stalls_Bucket_4: 19802
Critical_IP_ROB_Stalls_Bucket_5: 0
Non-critical_IP_ROB_Stalls_Bucket_5: 12957
Critical_IP_ROB_Stalls_Bucket_6: 0
Non-critical_IP_ROB_Stalls_Bucket_6: 8141
0 => IPs accounting for >50 percent of stalls, 1 => 55, 2 => 60, 3 => 65 and so on till 90.
percent50: 50.0779 num IPs:  244
percent55: 55.0268 num IPs: 282
percent60: 60.0578 num IPs: 321
percent65: 65.1146 num IPs: 361
percent70: 70.096 num IPs: 402
percent75: 75.0986 num IPs: 446
percent80: 80.0069 num IPs: 494
percent85: 85.0073 num IPs: 551
percent90: 90.01 num IPs: 642
Critical_ROB_Stalls_Percent_0_Bucket_0: 521578
Non-critical_ROB_Stalls_Percent_0_Bucket_0: 572149
Critical_ROB_Stalls_Percent_0_Bucket_1: 443107
Non-critical_ROB_Stalls_Percent_0_Bucket_1: 446477
Critical_ROB_Stalls_Percent_0_Bucket_2: 182940
Non-critical_ROB_Stalls_Percent_0_Bucket_2: 136837
Critical_ROB_Stalls_Percent_0_Bucket_3: 44378
Non-critical_ROB_Stalls_Percent_0_Bucket_3: 46313
Critical_ROB_Stalls_Percent_0_Bucket_4: 12829
Non-critical_ROB_Stalls_Percent_0_Bucket_4: 6973
Critical_ROB_Stalls_Percent_0_Bucket_5: 10571
Non-critical_ROB_Stalls_Percent_0_Bucket_5: 2386
Critical_ROB_Stalls_Percent_0_Bucket_6: 3835
Non-critical_ROB_Stalls_Percent_0_Bucket_6: 4306
Critical_ROB_Stalls_Percent_1_Bucket_0: 559663
Non-critical_ROB_Stalls_Percent_1_Bucket_0: 534064
Critical_ROB_Stalls_Percent_1_Bucket_1: 507169
Non-critical_ROB_Stalls_Percent_1_Bucket_1: 382415
Critical_ROB_Stalls_Percent_1_Bucket_2: 197011
Non-critical_ROB_Stalls_Percent_1_Bucket_2: 122766
Critical_ROB_Stalls_Percent_1_Bucket_3: 46462
Non-critical_ROB_Stalls_Percent_1_Bucket_3: 44229
Critical_ROB_Stalls_Percent_1_Bucket_4: 14724
Non-critical_ROB_Stalls_Percent_1_Bucket_4: 5078
Critical_ROB_Stalls_Percent_1_Bucket_5: 10692
Non-critical_ROB_Stalls_Percent_1_Bucket_5: 2265
Critical_ROB_Stalls_Percent_1_Bucket_6: 4006
Non-critical_ROB_Stalls_Percent_1_Bucket_6: 4135
Critical_ROB_Stalls_Percent_2_Bucket_0: 596217
Non-critical_ROB_Stalls_Percent_2_Bucket_0: 497510
Critical_ROB_Stalls_Percent_2_Bucket_1: 563289
Non-critical_ROB_Stalls_Percent_2_Bucket_1: 326295
Critical_ROB_Stalls_Percent_2_Bucket_2: 218424
Non-critical_ROB_Stalls_Percent_2_Bucket_2: 101353
Critical_ROB_Stalls_Percent_2_Bucket_3: 54749
Non-critical_ROB_Stalls_Percent_2_Bucket_3: 35942
Critical_ROB_Stalls_Percent_2_Bucket_4: 14829
Non-critical_ROB_Stalls_Percent_2_Bucket_4: 4973
Critical_ROB_Stalls_Percent_2_Bucket_5: 10701
Non-critical_ROB_Stalls_Percent_2_Bucket_5: 2256
Critical_ROB_Stalls_Percent_2_Bucket_6: 4006
Non-critical_ROB_Stalls_Percent_2_Bucket_6: 4135
Critical_ROB_Stalls_Percent_3_Bucket_0: 658229
Non-critical_ROB_Stalls_Percent_3_Bucket_0: 435498
Critical_ROB_Stalls_Percent_3_Bucket_1: 606566
Non-critical_ROB_Stalls_Percent_3_Bucket_1: 283018
Critical_ROB_Stalls_Percent_3_Bucket_2: 231231
Non-critical_ROB_Stalls_Percent_3_Bucket_2: 88546
Critical_ROB_Stalls_Percent_3_Bucket_3: 59353
Non-critical_ROB_Stalls_Percent_3_Bucket_3: 31338
Critical_ROB_Stalls_Percent_3_Bucket_4: 15143
Non-critical_ROB_Stalls_Percent_3_Bucket_4: 4659
Critical_ROB_Stalls_Percent_3_Bucket_5: 10734
Non-critical_ROB_Stalls_Percent_3_Bucket_5: 2223
Critical_ROB_Stalls_Percent_3_Bucket_6: 4076
Non-critical_ROB_Stalls_Percent_3_Bucket_6: 4065
Critical_ROB_Stalls_Percent_4_Bucket_0: 705232
Non-critical_ROB_Stalls_Percent_4_Bucket_0: 388495
Critical_ROB_Stalls_Percent_4_Bucket_1: 655362
Non-critical_ROB_Stalls_Percent_4_Bucket_1: 234222
Critical_ROB_Stalls_Percent_4_Bucket_2: 250622
Non-critical_ROB_Stalls_Percent_4_Bucket_2: 69155
Critical_ROB_Stalls_Percent_4_Bucket_3: 65135
Non-critical_ROB_Stalls_Percent_4_Bucket_3: 25556
Critical_ROB_Stalls_Percent_4_Bucket_4: 15437
Non-critical_ROB_Stalls_Percent_4_Bucket_4: 4365
Critical_ROB_Stalls_Percent_4_Bucket_5: 10749
Non-critical_ROB_Stalls_Percent_4_Bucket_5: 2208
Critical_ROB_Stalls_Percent_4_Bucket_6: 4076
Non-critical_ROB_Stalls_Percent_4_Bucket_6: 4065
Critical_ROB_Stalls_Percent_5_Bucket_0: 784829
Non-critical_ROB_Stalls_Percent_5_Bucket_0: 308898
Critical_ROB_Stalls_Percent_5_Bucket_1: 692227
Non-critical_ROB_Stalls_Percent_5_Bucket_1: 197357
Critical_ROB_Stalls_Percent_5_Bucket_2: 253362
Non-critical_ROB_Stalls_Percent_5_Bucket_2: 66415
Critical_ROB_Stalls_Percent_5_Bucket_3: 67301
Non-critical_ROB_Stalls_Percent_5_Bucket_3: 23390
Critical_ROB_Stalls_Percent_5_Bucket_4: 15833
Non-critical_ROB_Stalls_Percent_5_Bucket_4: 3969
Critical_ROB_Stalls_Percent_5_Bucket_5: 10781
Non-critical_ROB_Stalls_Percent_5_Bucket_5: 2176
Critical_ROB_Stalls_Percent_5_Bucket_6: 4077
Non-critical_ROB_Stalls_Percent_5_Bucket_6: 4064
Critical_ROB_Stalls_Percent_6_Bucket_0: 843676
Non-critical_ROB_Stalls_Percent_6_Bucket_0: 250051
Critical_ROB_Stalls_Percent_6_Bucket_1: 734588
Non-critical_ROB_Stalls_Percent_6_Bucket_1: 154996
Critical_ROB_Stalls_Percent_6_Bucket_2: 266752
Non-critical_ROB_Stalls_Percent_6_Bucket_2: 53025
Critical_ROB_Stalls_Percent_6_Bucket_3: 71571
Non-critical_ROB_Stalls_Percent_6_Bucket_3: 19120
Critical_ROB_Stalls_Percent_6_Bucket_4: 16211
Non-critical_ROB_Stalls_Percent_6_Bucket_4: 3591
Critical_ROB_Stalls_Percent_6_Bucket_5: 11005
Non-critical_ROB_Stalls_Percent_6_Bucket_5: 1952
Critical_ROB_Stalls_Percent_6_Bucket_6: 4107
Non-critical_ROB_Stalls_Percent_6_Bucket_6: 4034
Critical_ROB_Stalls_Percent_7_Bucket_0: 919527
Non-critical_ROB_Stalls_Percent_7_Bucket_0: 174200
Critical_ROB_Stalls_Percent_7_Bucket_1: 764862
Non-critical_ROB_Stalls_Percent_7_Bucket_1: 124722
Critical_ROB_Stalls_Percent_7_Bucket_2: 276485
Non-critical_ROB_Stalls_Percent_7_Bucket_2: 43292
Critical_ROB_Stalls_Percent_7_Bucket_3: 74040
Non-critical_ROB_Stalls_Percent_7_Bucket_3: 16651
Critical_ROB_Stalls_Percent_7_Bucket_4: 16438
Non-critical_ROB_Stalls_Percent_7_Bucket_4: 3364
Critical_ROB_Stalls_Percent_7_Bucket_5: 12214
Non-critical_ROB_Stalls_Percent_7_Bucket_5: 743
Critical_ROB_Stalls_Percent_7_Bucket_6: 6090
Non-critical_ROB_Stalls_Percent_7_Bucket_6: 2051
Critical_ROB_Stalls_Percent_8_Bucket_0: 986967
Non-critical_ROB_Stalls_Percent_8_Bucket_0: 106760
Critical_ROB_Stalls_Percent_8_Bucket_1: 802627
Non-critical_ROB_Stalls_Percent_8_Bucket_1: 86957
Critical_ROB_Stalls_Percent_8_Bucket_2: 286992
Non-critical_ROB_Stalls_Percent_8_Bucket_2: 32785
Critical_ROB_Stalls_Percent_8_Bucket_3: 78354
Non-critical_ROB_Stalls_Percent_8_Bucket_3: 12337
Critical_ROB_Stalls_Percent_8_Bucket_4: 16647
Non-critical_ROB_Stalls_Percent_8_Bucket_4: 3155
Critical_ROB_Stalls_Percent_8_Bucket_5: 12369
Non-critical_ROB_Stalls_Percent_8_Bucket_5: 588
Critical_ROB_Stalls_Percent_8_Bucket_6: 7498
Non-critical_ROB_Stalls_Percent_8_Bucket_6: 643
Average ROB occupancy Load Stall Begin: 54.505
Average ROB occupancy Load Stall End: 65.9357
Min ROB occupancy Load Stall Begin: 1
Max ROB occupancy Load Stall Begin: 352
Min ROB occupancy Load Stall End: 1
Max ROB occupancy Load Stall End: 352
Average ROB occupancy Critical Load Stall Begin: -nan
Average ROB occupancy Critical Load Stall End: -nan
Min ROB occupancy Critical Load Stall Begin: 400
Max ROB occupancy Critical Load Stall Begin: 0
Min ROB occupancy Critical Load Stall End: 400
Max ROB occupancy Critical Load Stall End: 0
 ROB Load Stall Begin Bucket Count 0: 1422925
 ROB Load Stall End Bucket Count 0: 1093727
 ROB Critical Load Stall Begin Bucket Count 0: 0
 ROB Critical Load Stall End Bucket Count 0: 0
 ROB Load Stall Begin Bucket Count 1: 695413
 ROB Load Stall End Bucket Count 1: 889584
 ROB Critical Load Stall Begin Bucket Count 1: 0
 ROB Critical Load Stall End Bucket Count 1: 0
 ROB Load Stall Begin Bucket Count 2: 230165
 ROB Load Stall End Bucket Count 2: 319777
 ROB Critical Load Stall Begin Bucket Count 2: 0
 ROB Critical Load Stall End Bucket Count 2: 0
 ROB Load Stall Begin Bucket Count 3: 57823
 ROB Load Stall End Bucket Count 3: 90691
 ROB Critical Load Stall Begin Bucket Count 3: 0
 ROB Critical Load Stall End Bucket Count 3: 0
 ROB Load Stall Begin Bucket Count 4: 9517
 ROB Load Stall End Bucket Count 4: 19802
 ROB Critical Load Stall Begin Bucket Count 4: 0
 ROB Critical Load Stall End Bucket Count 4: 0
 ROB Load Stall Begin Bucket Count 5: 12564
 ROB Load Stall End Bucket Count 5: 12957
 ROB Critical Load Stall Begin Bucket Count 5: 0
 ROB Critical Load Stall End Bucket Count 5: 0
 ROB Load Stall Begin Bucket Count 6: 6272
 ROB Load Stall End Bucket Count 6: 8141
 ROB Critical Load Stall Begin Bucket Count 6: 0
 ROB Critical Load Stall End Bucket Count 6: 0
PIST Tag Read Accesses: 3170448
PIST Read Accesses: 1585224
PIST Tag Write Accesses: 3170448
PIST Write Accesses: 1585224
Criticality detector called times: 2432892
Max global_stall_cycles_count: 2809889
Threshold Modified: 1 times, factor: -1
Sturdy critical IP cache stats: 
 Unused entries: 0
CIC Tag Read Accesses: 0
CIC Read Accesses: 0
CIC Tag Write Accesses: 0
CIC Write Accesses: 0
Wobbly critical IP cache stats: 
 Unused entries: 127
CIC Tag Read Accesses: 76466242
CIC Read Accesses: 0
CIC Tag Write Accesses: 1
CIC Write Accesses: 0
ITLB TOTAL     ACCESS:   10587204  HIT:    9877826  MISS:     709378  HIT %:    93.2997  MISS %:    6.70033   MPKI: 14.1876
ITLB LOAD TRANSLATION ACCESS:    8007595  HIT:    7982810  MISS:      24785  HIT %:    99.6905  MISS %:   0.309519   MPKI: 0.4957
ITLB TRANSLATION FROM L1D PREFETCHER ACCESS:    2579609  HIT:    1895016  MISS:     684593  HIT %:    73.4614  MISS %:    26.5386   MPKI: 13.6919
ITLB PREFETCH  REQUESTED:          0  ISSUED:          0  USEFUL:     647335  USELESS:      37257
ITLB USEFUL LOAD PREFETCHES:     647335 PREFETCH ISSUED TO LOWER LEVEL:          0  ACCURACY: inf
ITLB TIMELY PREFETCHES:     647335 LATE PREFETCHES: 3 DROPPED PREFETCHES: 79
ITLB PREFETCHES SAME FILL-ORIGIN LEVEL: 0 DIFFERENT FILL-ORIGIN LEVEL: 0
ITLB AVERAGE MISS LATENCY: 115.122 cycles
ITLB RQ	ACCESS:   16250140	FORWARD:          0	MERGED:    5578207	TO_CACHE:   10671933

DTLB TOTAL     ACCESS:    9395866  HIT:    8876000  MISS:     519866  HIT %:    94.4671  MISS %:    5.53292   MPKI: 10.3973
DTLB LOAD TRANSLATION ACCESS:    9395866  HIT:    8876000  MISS:     519866  HIT %:    94.4671  MISS %:    5.53292   MPKI: 10.3973
DTLB PREFETCH  REQUESTED:          0  ISSUED:          0  USEFUL:          0  USELESS:          0
DTLB USEFUL LOAD PREFETCHES:          0 PREFETCH ISSUED TO LOWER LEVEL:          0  ACCURACY: -nan
DTLB TIMELY PREFETCHES:          0 LATE PREFETCHES: 0 DROPPED PREFETCHES: 0
DTLB PREFETCHES SAME FILL-ORIGIN LEVEL: 0 DIFFERENT FILL-ORIGIN LEVEL: 0
DTLB AVERAGE MISS LATENCY: 9.84425 cycles
DTLB RQ	ACCESS:   13428039	FORWARD:          0	MERGED:    3989932	TO_CACHE:    9438107

STLB TOTAL     ACCESS:    1233295  HIT:    1227419  MISS:       5876  HIT %:    99.5236  MISS %:   0.476447   MPKI: 0.11752
STLB LOAD TRANSLATION ACCESS:     544648  HIT:     538891  MISS:       5757  HIT %:     98.943  MISS %:    1.05701   MPKI: 0.11514
STLB TRANSLATION FROM L1D PREFETCHER ACCESS:     688647  HIT:     688528  MISS:        119  HIT %:    99.9827  MISS %:  0.0172803   MPKI: 0.00238
STLB PREFETCH  REQUESTED:          0  ISSUED:          0  USEFUL:         62  USELESS:         46
STLB USEFUL LOAD PREFETCHES:         62 PREFETCH ISSUED TO LOWER LEVEL:          0  ACCURACY: inf
STLB TIMELY PREFETCHES:         62 LATE PREFETCHES: 0 DROPPED PREFETCHES: 79
STLB PREFETCHES SAME FILL-ORIGIN LEVEL: 0 DIFFERENT FILL-ORIGIN LEVEL: 0
STLB AVERAGE MISS LATENCY: 73.636 cycles
STLB RQ	ACCESS:    1234459	FORWARD:          0	MERGED:       1085	TO_CACHE:    1233374

STLB Hit, L1D data hit: 0
STLB Hit, L2C data hit: 0
STLB Hit, LLC data hit: 0
STLB Hit, LLC data miss: 0
STLB STLB hints to L2: 0
L1D TOTAL     ACCESS:   13334353  HIT:   12893281  MISS:     441072  HIT %:    96.6922  MISS %:    3.30779   MPKI: 8.82144
L1D LOAD      ACCESS:    7080096  HIT:    6703635  MISS:     376461  HIT %:    94.6828  MISS %:    5.31717   MPKI: 7.52922
L1D RFO       ACCESS:    6249942  HIT:    6187558  MISS:      62384  HIT %:    99.0018  MISS %:   0.998153   MPKI: 1.24768
L1D PREFETCH  ACCESS:       4315  HIT:       2088  MISS:       2227  HIT %:    48.3893  MISS %:    51.6107   MPKI: 0.04454
L1D PREFETCH  REQUESTED:      10273  ISSUED:      10273  USEFUL:       1359  USELESS:        897
L1D USEFUL LOAD PREFETCHES:       1359 PREFETCH ISSUED TO LOWER LEVEL:       2954  ACCURACY: 46.0054
L1D TIMELY PREFETCHES:       1359 LATE PREFETCHES: 727 DROPPED PREFETCHES: 0
L1D PREFETCHES SAME FILL-ORIGIN LEVEL: 2954 DIFFERENT FILL-ORIGIN LEVEL: 0
L1D AVERAGE MISS LATENCY: 68039.3 cycles
L1D RQ	ACCESS:   10948149	FORWARD:          0	MERGED:    3701096	TO_CACHE:    7094794
L1D WQ	ACCESS:    6427456	FORWARD:     152260	MERGED:      94211	TO_CACHE:    6333245
L1D PQ	ACCESS:       5137	FORWARD:          0	MERGED:          0	TO_CACHE:       5136

L1D UNIQUE REGIONS ACCESSED: 0
L1D REGIONS CONFLICTS: 0
L1D Cross Page Prefetch Requests: 0
L1D Same Page Prefetch Requests: 80223
L1D ROI Sum of L1D PQ occupancy: 66337
L1D PREFETCHES PUSHED FROM L2C: 0
L1I TOTAL     ACCESS:   16212524  HIT:   11468628  MISS:    4743896  HIT %:    70.7393  MISS %:    29.2607   MPKI: 94.8779
L1I LOAD      ACCESS:    9511330  HIT:    9496585  MISS:      14745  HIT %:     99.845  MISS %:   0.155026   MPKI: 0.2949
L1I PREFETCH  ACCESS:    6701194  HIT:    1972043  MISS:    4729151  HIT %:    29.4282  MISS %:    70.5718   MPKI: 94.583
L1I PREFETCH  REQUESTED:    6930582  ISSUED:    6905359  USEFUL:    4101337  USELESS:     627821
L1I USEFUL LOAD PREFETCHES:    4101337 PREFETCH ISSUED TO LOWER LEVEL:    4732750  ACCURACY: 86.6586
L1I TIMELY PREFETCHES:    4101337 LATE PREFETCHES: 3601 DROPPED PREFETCHES: 158
L1I PREFETCHES SAME FILL-ORIGIN LEVEL: 4732750 DIFFERENT FILL-ORIGIN LEVEL: 0
L1I AVERAGE MISS LATENCY: 31178.3 cycles
L1I RQ	ACCESS:   14194698	FORWARD:          0	MERGED:    4682560	TO_CACHE:    9512138
L1I PQ	ACCESS:    6905359	FORWARD:          0	MERGED:     167357	TO_CACHE:    6738002

BTB TOTAL     ACCESS:    5373999  HIT:    4845470  MISS:     528529  HIT %:    90.1651  MISS %:    9.83493   MPKI: 10.5706
BTB BRANCH_DIRECT_JUMP	ACCESS:     541911  HIT:     528428  MISS:      13483
BTB BRANCH_INDIRECT	ACCESS:      59690  HIT:      59594  MISS:         96
BTB BRANCH_CONDITIONAL	ACCESS:    2296252  HIT:    2253029  MISS:      43223
BTB BRANCH_DIRECT_CALL	ACCESS:    1003585  HIT:     965030  MISS:      38555
BTB BRANCH_INDIRECT_CALL	ACCESS:     234499  HIT:     188656  MISS:      45843
BTB BRANCH_RETURN	ACCESS:    1238062  HIT:     850733  MISS:     387329
BTB BRANCH_OTHER ACCESS:          0  HIT:          0  MISS:          0

L2C TOTAL     ACCESS:    5426241  HIT:    5276562  MISS:     149679  HIT %:    97.2416  MISS %:    2.75843   MPKI: 2.99358
L2C LOAD      ACCESS:     386803  HIT:     278489  MISS:     108314  HIT %:    71.9976  MISS %:    28.0024   MPKI: 2.16628
L2C DATA LOAD MPKI: 2.1535
L2C INSTRUCTION LOAD MPKI: 0.01278
L2C RFO       ACCESS:      62384  HIT:      37833  MISS:      24551  HIT %:    60.6454  MISS %:    39.3546   MPKI: 0.49102
L2C PREFETCH  ACCESS:    4735705  HIT:    4728321  MISS:       7384  HIT %:    99.8441  MISS %:   0.155922   MPKI: 0.14768
L2C DATA PREFETCH MPKI: 0.04574
L2C INSTRUCTION PREFETCH MPKI: 0.10194
L2C WRITEBACK ACCESS:     233138  HIT:     228609  MISS:       4529  HIT %:    98.0574  MISS %:    1.94263   MPKI: 0.09058
L2C LOAD TRANSLATION ACCESS:       7877  HIT:       3103  MISS:       4774  HIT %:    39.3932  MISS %:    60.6068   MPKI: 0.09548
L2C TRANSLATION FROM L1D PREFETCHER ACCESS:        334  HIT:        207  MISS:        127  HIT %:     61.976  MISS %:     38.024   MPKI: 0.00254
L2C PREFETCH  REQUESTED:          0  ISSUED:          0  USEFUL:        250  USELESS:       7409
L2C USEFUL LOAD PREFETCHES:        250 PREFETCH ISSUED TO LOWER LEVEL:       7384  ACCURACY: 3.3857
L2C TIMELY PREFETCHES:        250 LATE PREFETCHES: 0 DROPPED PREFETCHES: 0
L2C PREFETCHES SAME FILL-ORIGIN LEVEL: 0 DIFFERENT FILL-ORIGIN LEVEL: 0
L2C AVERAGE MISS LATENCY: 51.6481 cycles
L2C RQ	ACCESS:     457473	FORWARD:          0	MERGED:          0	TO_CACHE:     457398
L2C WQ	ACCESS:     233138	FORWARD:         75	MERGED:          0	TO_CACHE:     233138
L2C PQ	ACCESS:    4735704	FORWARD:          0	MERGED:          0	TO_CACHE:    4735704

L2C Instructions Evicting Data 5237
L2C Translations Evicting Data 4424
L2C Data Evicting Data 125351
L2C Instructions Evicting Instructions 291
L2C Translations Evicting Instructions 194
L2C Data Evicting Instructions 4833
L2C Instructions Evicting Translations 208
L2C Translations Evicting Translations 283
L2C Data Evicting Translations 4329
L2C Dense regions hint from L2: 0
PSCL5 TOTAL     ACCESS:       5955  HIT:       5955  MISS:          0  HIT %:        100  MISS %:          0   MPKI: 0
PSCL5 LOAD TRANSLATION ACCESS:       5757  HIT:       5757  MISS:          0  HIT %:        100  MISS %:          0   MPKI: 0
PSCL5 TRANSLATION FROM L1D PREFETCHER ACCESS:        198  HIT:        198  MISS:          0  HIT %:        100  MISS %:          0   MPKI: 0
PSCL5 PREFETCH  REQUESTED:          0  ISSUED:          0  USEFUL:          0  USELESS:          0
PSCL5 USEFUL LOAD PREFETCHES:          0 PREFETCH ISSUED TO LOWER LEVEL:          0  ACCURACY: -nan
PSCL5 TIMELY PREFETCHES:          0 LATE PREFETCHES: 0 DROPPED PREFETCHES: 0
PSCL5 PREFETCHES SAME FILL-ORIGIN LEVEL: 0 DIFFERENT FILL-ORIGIN LEVEL: 0

PSCL4 TOTAL     ACCESS:       5936  HIT:       5933  MISS:          3  HIT %:    99.9495  MISS %:  0.0505391   MPKI: 6e-05
PSCL4 LOAD TRANSLATION ACCESS:       5738  HIT:       5735  MISS:          3  HIT %:    99.9477  MISS %:   0.052283   MPKI: 6e-05
PSCL4 TRANSLATION FROM L1D PREFETCHER ACCESS:        198  HIT:        198  MISS:          0  HIT %:        100  MISS %:          0   MPKI: 0
PSCL4 PREFETCH  REQUESTED:          0  ISSUED:          0  USEFUL:          0  USELESS:          0
PSCL4 USEFUL LOAD PREFETCHES:          0 PREFETCH ISSUED TO LOWER LEVEL:          0  ACCURACY: -nan
PSCL4 TIMELY PREFETCHES:          0 LATE PREFETCHES: 0 DROPPED PREFETCHES: 0
PSCL4 PREFETCHES SAME FILL-ORIGIN LEVEL: 0 DIFFERENT FILL-ORIGIN LEVEL: 0

PSCL3 TOTAL     ACCESS:       5946  HIT:       5940  MISS:          6  HIT %:    99.8991  MISS %:   0.100908   MPKI: 0.00012
PSCL3 LOAD TRANSLATION ACCESS:       5748  HIT:       5742  MISS:          6  HIT %:    99.8956  MISS %:   0.104384   MPKI: 0.00012
PSCL3 TRANSLATION FROM L1D PREFETCHER ACCESS:        198  HIT:        198  MISS:          0  HIT %:        100  MISS %:          0   MPKI: 0
PSCL3 PREFETCH  REQUESTED:          0  ISSUED:          0  USEFUL:          0  USELESS:          0
PSCL3 USEFUL LOAD PREFETCHES:          0 PREFETCH ISSUED TO LOWER LEVEL:          0  ACCURACY: -nan
PSCL3 TIMELY PREFETCHES:          0 LATE PREFETCHES: 0 DROPPED PREFETCHES: 0
PSCL3 PREFETCHES SAME FILL-ORIGIN LEVEL: 0 DIFFERENT FILL-ORIGIN LEVEL: 0

PSCL2 TOTAL     ACCESS:       5876  HIT:       3685  MISS:       2191  HIT %:    62.7127  MISS %:    37.2873   MPKI: 0.04382
PSCL2 LOAD TRANSLATION ACCESS:       5814  HIT:       3623  MISS:       2191  HIT %:    62.3151  MISS %:    37.6849   MPKI: 0.04382
PSCL2 TRANSLATION FROM L1D PREFETCHER ACCESS:         62  HIT:         62  MISS:          0  HIT %:        100  MISS %:          0   MPKI: 0
PSCL2 PREFETCH  REQUESTED:          0  ISSUED:          0  USEFUL:          0  USELESS:          0
PSCL2 USEFUL LOAD PREFETCHES:          0 PREFETCH ISSUED TO LOWER LEVEL:          0  ACCURACY: -nan
PSCL2 TIMELY PREFETCHES:          0 LATE PREFETCHES: 0 DROPPED PREFETCHES: 0
PSCL2 PREFETCHES SAME FILL-ORIGIN LEVEL: 0 DIFFERENT FILL-ORIGIN LEVEL: 0

LLC TOTAL     ACCESS:     216565  HIT:     194373  MISS:      22192  HIT %:    89.7527  MISS %:    10.2473   MPKI: 0.44384
LLC LOAD      ACCESS:     108312  HIT:      94007  MISS:      14305  HIT %:    86.7928  MISS %:    13.2072   MPKI: 0.2861
LLC RFO       ACCESS:      24551  HIT:      19209  MISS:       5342  HIT %:    78.2412  MISS %:    21.7588   MPKI: 0.10684
LLC PREFETCH  ACCESS:       7384  HIT:       5228  MISS:       2156  HIT %:    70.8017  MISS %:    29.1983   MPKI: 0.04312
LLC WRITEBACK ACCESS:      71417  HIT:      71165  MISS:        252  HIT %:    99.6471  MISS %:   0.352857   MPKI: 0.00504
LLC LOAD TRANSLATION ACCESS:       4774  HIT:       4637  MISS:        137  HIT %:    97.1303  MISS %:    2.86971   MPKI: 0.00274
LLC TRANSLATION FROM L1D PREFETCHER ACCESS:        127  HIT:        127  MISS:          0  HIT %:        100  MISS %:          0   MPKI: 0
LLC PREFETCH  REQUESTED:          0  ISSUED:          0  USEFUL:         29  USELESS:       3107
LLC USEFUL LOAD PREFETCHES:         29 PREFETCH ISSUED TO LOWER LEVEL:       2156  ACCURACY: 1.34508
LLC TIMELY PREFETCHES:         29 LATE PREFETCHES: 0 DROPPED PREFETCHES: 0
LLC PREFETCHES SAME FILL-ORIGIN LEVEL: 0 DIFFERENT FILL-ORIGIN LEVEL: 0
LLC AVERAGE MISS LATENCY: 152.013 cycles
LLC RQ	ACCESS:     137766	FORWARD:          0	MERGED:          0	TO_CACHE:     137764
LLC WQ	ACCESS:      71417	FORWARD:          2	MERGED:          0	TO_CACHE:      71417
LLC PQ	ACCESS:       7384	FORWARD:          0	MERGED:          0	TO_CACHE:       7384

LLC Dense regions hint to LLC: 0

RAW hits: 1601342
Loads Generated: 12549491
Loads sent to L1D: 10948149
Stores Generated: 6427447
Stores sent to L1D: 6427456
Major fault: 0 Minor fault: 5748
Allocated PAGES: 5748
I-Shadow cache 408 bytes
Touched + WorthPF tables 6144 bytes 
MMA filter 174 bytes 
FNL filter 272 bytes 
TOTAL PREFETCHER STORAGE SIZE: 25174 bytes
CPU 0 L1I next line prefetcher final stats

stream: 
stream:times selected: 85276
stream:pref_filled: 20678
stream:pref_useful: 6896
stream:pref_late: 682
stream:misses: 27
stream:misses_by_poll: 0

CS: 
CS:times selected: 5148
CS:pref_filled: 2656
CS:pref_useful: 2573
CS:pref_late: 691
CS:misses: 790
CS:misses_by_poll: 0

CPLX: 
CPLX:times selected: 78195
CPLX:pref_filled: 9465
CPLX:pref_useful: 1203
CPLX:pref_late: 31
CPLX:misses: 151
CPLX:misses_by_poll: 0

NL_L1: 
NL:times selected: 512
NL:pref_filled: 391
NL:pref_useful: 160
NL:pref_late: 1
NL:misses: 2
NL:misses_by_poll: 0

total selections: 169131
total_filled: 2227
total_useful: 1359
total_late: 1458
total_polluted: 0
total_misses_after_warmup: 16683
conflicts: 135000
Degree Incremented Times: 13
Degree Decremented Times: 52745

L1 IP Table Write Accesses: 146182
L1 IP Table Read Accesses: 11182
L1 RST Write Accesses: 5407
L1 RST Read Accesses: 10814
L1 CSPT Write Accesses: 5407
L1 CSPT Read Accesses: 8739
L1 RR Filter Tag Write Accesses: 5137
L1 RR Filter Tag Read Accesses: 394251
L1 IP Table Tag Write Accesses: 284963
L1 IP Table Tag Read Accesses: 284963
L1 RST Tag Write Accesses: 0
L1 RST Tag Read Accesses: 53743
L1 RR Filter Write Accesses: 0
L1 RR Filter Read Accesses: 13447
test: 26572

DRAM Statistics
 CHANNEL 0
 RQ ROW_BUFFER_HIT:       4625  ROW_BUFFER_MISS:      17315
 DBUS_CONGESTED:          4
 WQ ROW_BUFFER_HIT:        610  ROW_BUFFER_MISS:       6912  FULL:          0

 AVG_CONGESTED_CYCLE: 3
 All warmup complete: 2
Channel 0 Bank busy for read cycles: 0
Channel 0 Bank busy for write cycles: 0
Channel 0
Rank 0
0banks busy for read cycles: 54078981
0banks busy for write cycles: 5161
1banks busy for read cycles: 1678026
1banks busy for write cycles: 813477
2banks busy for read cycles: 369452
2banks busy for write cycles: 155441
3banks busy for read cycles: 21444
3banks busy for write cycles: 22109
4banks busy for read cycles: 19836
4banks busy for write cycles: 14081
5banks busy for read cycles: 13928
5banks busy for write cycles: 4547
6banks busy for read cycles: 16622
6banks busy for write cycles: 6405
7banks busy for read cycles: 14151
7banks busy for write cycles: 5951
8banks busy for read cycles: 0
8banks busy for write cycles: 3978

CPU 0 Branch Prediction Accuracy: 99.9279% MPKI: 0.12968 Average ROB Occupancy at Mispredict: 52.9733
Branch types
NOT_BRANCH: 41006134 82.0123%
BRANCH_DIRECT_JUMP: 541911 1.08382%
BRANCH_INDIRECT: 59690 0.11938%
BRANCH_CONDITIONAL: 5915823 11.8316%
BRANCH_DIRECT_CALL: 1003585 2.00717%
BRANCH_INDIRECT_CALL: 234499 0.468998%
BRANCH_RETURN: 1238062 2.47612%
BRANCH_OTHER: 0 0%

DRAM PAGES: 1048576
Allocated PAGES: 5748
