
*** ChampSim Multicore Out-of-Order Simulator ***

Warmup Instructions: 50000000
Simulation Instructions: 50000000
Number of CPUs: 1
LLC sets: 2048
LLC ways: 16
Off-chip DRAM Size: 4096 MB Channels: 1 Width: 64-bit Data Rate: 6400 MT/s
CPU 0 runs ../IPC-traces//server_028.champsimtrace.xz
.xz
NUM_OF_IPS_IN_CRITICAL_IP_TRAINING: 64
NUM_OF_CRITICAL_IP_TRAINING_TABLE_WAYS: 2
NUM_OF_CRITICAL_IP_TRAINING_TABLE_SETS: 32
WOBBLY_CRITICAL_IP_CACHE_SETS: 32
WOBBLY_CRITICAL_IP_CACHE_WAYS: 4
BTB has LRU replacement policy
ITLB has LRU replacement policy
DTLB has LRU replacement policy
STLB has LRU replacement policy
CPU 0 L1I next line prefetcher
L1I has LRU replacement policy
L1D has LRU replacement policy
Bingo PHT WAYS: 16 and PHT_SIZE: 16384
Initialize SRRIP state for L2C
Initialize DRRIP state for LLC
Heartbeat CPU 0 instructions: 10000001 cycles: 2882144 heartbeat IPC: 3.46964 cumulative IPC: 3.46964 (Simulation time: 0 hr 2 min 58 sec) 
Heartbeat CPU 0 instructions: 20000001 cycles: 5759274 heartbeat IPC: 3.47569 cumulative IPC: 3.47266 (Simulation time: 0 hr 5 min 36 sec) 
Heartbeat CPU 0 instructions: 30000002 cycles: 8635985 heartbeat IPC: 3.47619 cumulative IPC: 3.47384 (Simulation time: 0 hr 8 min 12 sec) 
Heartbeat CPU 0 instructions: 40000000 cycles: 11515191 heartbeat IPC: 3.47318 cumulative IPC: 3.47367 (Simulation time: 0 hr 10 min 25 sec) 
Heartbeat CPU 0 instructions: 50000001 cycles: 14392080 heartbeat IPC: 3.47598 cumulative IPC: 3.47413 (Simulation time: 0 hr 12 min 34 sec) 

Warmup complete CPU 0 instructions: 50000001 cycles: 14392080 (Simulation time: 0 hr 12 min 34 sec) 

% increase in all ip prefetch 416.567
% increase in all ip prefetch 1.14717
Heartbeat CPU 0 instructions: 60000000 cycles: 30601806 heartbeat IPC: 0.616913 cumulative IPC: 0.616913 (Simulation time: 0 hr 15 min 3 sec) 
Heartbeat CPU 0 instructions: 70000000 cycles: 46748703 heartbeat IPC: 0.619314 cumulative IPC: 0.618111 (Simulation time: 0 hr 17 min 33 sec) 
Heartbeat CPU 0 instructions: 80000000 cycles: 62902094 heartbeat IPC: 0.619065 cumulative IPC: 0.618429 (Simulation time: 0 hr 20 min 2 sec) 
*** Reached end of trace for Core: 0 Repeating trace: ../IPC-traces//server_028.champsimtrace.xz
Heartbeat CPU 0 instructions: 90000001 cycles: 78986391 heartbeat IPC: 0.621724 cumulative IPC: 0.61925 (Simulation time: 0 hr 22 min 32 sec) 
Heartbeat CPU 0 instructions: 100000003 cycles: 95025350 heartbeat IPC: 0.623482 cumulative IPC: 0.620091 (Simulation time: 0 hr 25 min 18 sec) 
Finished CPU 0 instructions: 50000002 cycles: 80633270 cumulative IPC: 0.620091 (Simulation time: 0 hr 25 min 18 sec) 

ChampSim completed all CPUs

Region of Interest Statistics

CPU 0 cumulative IPC: 0.620091 instructions: 50000002 cycles: 80633270

CPU 0 Average Load ROB stall cycles: 1.95927e+07
CPU 0 Fraction of times ROB stalled by Loads: 35.7668
CPU 0 Percentage of Load stall cycles in Total stall cycles: 2.71143e+08
Issued all: 28034796
Issued LT all: 22113388
rob_not_full_when_issued_lt_all: 22044776
Issued LT one: 17237245
rob_not_full_when_issued_lt_one: 17175897
critical_ip_candidate_identification_operations: 6759966
critical_ip_candidate_identification_operation_per_cycle: 0.0838359
 Total stall cycles: 68285734
 Total load stall cycles: 185151795125907
Unique Load IPs: 11309
CPU 0 NUM of IPS identified critical: 4
CPU 0 Num of Load IPs stalling ROB: 10044
Threshold modification factor: -1
Max PIST entries: 64
Min PIST entries: 0
Avg PIST entries: 32
Trouble in retire width: 0.890435
MaC = Marked as critical.
lt_50_percent_before_Mac: 4
gt_90_percent_before_Mac: 0
gt_75_percent_before_Mac: 0
gt_50_percent_before_Mac: 0
stall_proportion_bin_same_before_after: 0
stall_proportion_bin_lower_before_after: 0
stall_proportion_bin_upper_before_after: 0
average_stall_proportion_before: 0.13128
average_stall_proportion_after: 0.126889
Critical IP stalls, total frequency: 90990
Non-critical IP stalls, total frequency: 3288993
Total Freq all stalling IPs: 3379983
Critical_IP_Detector_Accuracy_70: 1
Critical_IP_Detector_Accuracy_80: 1
Critical_IP_Detector_Accuracy_90: 1
Critical_IP_Detector_Coverage_70: 0.00317712
Critical_IP_Detector_Coverage_80: 0.00234055
Critical_IP_Detector_Coverage_90: 0.00179937
stat_90_percent_critical_ip_stalls_freq: 3042284
stat_90_percent_non_critical_ip_stalls_freq: 337699
AVERAGE_ROB_Occupancy_90_Percent_Critical_IP_Stalls: 47.0321
AVERAGE_ROB_Occupancy_90_Percent_Non_Critical_IP_Stalls: 33.5412
Critical_IP_ROB_Stalls_Bucket_0: 6721
Non-critical_IP_ROB_Stalls_Bucket_0: 2343211
Critical_IP_ROB_Stalls_Bucket_1: 22977
Non-critical_IP_ROB_Stalls_Bucket_1: 678946
Critical_IP_ROB_Stalls_Bucket_2: 37650
Non-critical_IP_ROB_Stalls_Bucket_2: 198225
Critical_IP_ROB_Stalls_Bucket_3: 12451
Non-critical_IP_ROB_Stalls_Bucket_3: 47537
Critical_IP_ROB_Stalls_Bucket_4: 4480
Non-critical_IP_ROB_Stalls_Bucket_4: 16041
Critical_IP_ROB_Stalls_Bucket_5: 2363
Non-critical_IP_ROB_Stalls_Bucket_5: 3406
Critical_IP_ROB_Stalls_Bucket_6: 4348
Non-critical_IP_ROB_Stalls_Bucket_6: 1627
0 => IPs accounting for >50 percent of stalls, 1 => 55, 2 => 60, 3 => 65 and so on till 90.
percent50: 50.0292 num IPs:  428
percent55: 55.0212 num IPs: 610
percent60: 60.0006 num IPs: 820
percent65: 65.0128 num IPs: 1036
percent70: 70.0143 num IPs: 1259
percent75: 75.0005 num IPs: 1482
percent80: 80.0056 num IPs: 1709
percent85: 85.0012 num IPs: 1945
percent90: 90.0097 num IPs: 2223
Critical_ROB_Stalls_Percent_0_Bucket_0: 1003597
Non-critical_ROB_Stalls_Percent_0_Bucket_0: 1346335
Critical_ROB_Stalls_Percent_0_Bucket_1: 431547
Non-critical_ROB_Stalls_Percent_0_Bucket_1: 270376
Critical_ROB_Stalls_Percent_0_Bucket_2: 176756
Non-critical_ROB_Stalls_Percent_0_Bucket_2: 59119
Critical_ROB_Stalls_Percent_0_Bucket_3: 51935
Non-critical_ROB_Stalls_Percent_0_Bucket_3: 8053
Critical_ROB_Stalls_Percent_0_Bucket_4: 17157
Non-critical_ROB_Stalls_Percent_0_Bucket_4: 3364
Critical_ROB_Stalls_Percent_0_Bucket_5: 4672
Non-critical_ROB_Stalls_Percent_0_Bucket_5: 1097
Critical_ROB_Stalls_Percent_0_Bucket_6: 5313
Non-critical_ROB_Stalls_Percent_0_Bucket_6: 662
Critical_ROB_Stalls_Percent_1_Bucket_0: 1126114
Non-critical_ROB_Stalls_Percent_1_Bucket_0: 1223818
Critical_ROB_Stalls_Percent_1_Bucket_1: 462114
Non-critical_ROB_Stalls_Percent_1_Bucket_1: 239809
Critical_ROB_Stalls_Percent_1_Bucket_2: 188976
Non-critical_ROB_Stalls_Percent_1_Bucket_2: 46899
Critical_ROB_Stalls_Percent_1_Bucket_3: 54050
Non-critical_ROB_Stalls_Percent_1_Bucket_3: 5938
Critical_ROB_Stalls_Percent_1_Bucket_4: 18354
Non-critical_ROB_Stalls_Percent_1_Bucket_4: 2167
Critical_ROB_Stalls_Percent_1_Bucket_5: 4759
Non-critical_ROB_Stalls_Percent_1_Bucket_5: 1010
Critical_ROB_Stalls_Percent_1_Bucket_6: 5338
Non-critical_ROB_Stalls_Percent_1_Bucket_6: 637
Critical_ROB_Stalls_Percent_2_Bucket_0: 1236782
Non-critical_ROB_Stalls_Percent_2_Bucket_0: 1113150
Critical_ROB_Stalls_Percent_2_Bucket_1: 510587
Non-critical_ROB_Stalls_Percent_2_Bucket_1: 191336
Critical_ROB_Stalls_Percent_2_Bucket_2: 197601
Non-critical_ROB_Stalls_Percent_2_Bucket_2: 38274
Critical_ROB_Stalls_Percent_2_Bucket_3: 54464
Non-critical_ROB_Stalls_Percent_2_Bucket_3: 5524
Critical_ROB_Stalls_Percent_2_Bucket_4: 18465
Non-critical_ROB_Stalls_Percent_2_Bucket_4: 2056
Critical_ROB_Stalls_Percent_2_Bucket_5: 4774
Non-critical_ROB_Stalls_Percent_2_Bucket_5: 995
Critical_ROB_Stalls_Percent_2_Bucket_6: 5340
Non-critical_ROB_Stalls_Percent_2_Bucket_6: 635
Critical_ROB_Stalls_Percent_3_Bucket_0: 1366480
Non-critical_ROB_Stalls_Percent_3_Bucket_0: 983452
Critical_ROB_Stalls_Percent_3_Bucket_1: 543847
Non-critical_ROB_Stalls_Percent_3_Bucket_1: 158076
Critical_ROB_Stalls_Percent_3_Bucket_2: 203556
Non-critical_ROB_Stalls_Percent_3_Bucket_2: 32319
Critical_ROB_Stalls_Percent_3_Bucket_3: 54736
Non-critical_ROB_Stalls_Percent_3_Bucket_3: 5252
Critical_ROB_Stalls_Percent_3_Bucket_4: 18669
Non-critical_ROB_Stalls_Percent_3_Bucket_4: 1852
Critical_ROB_Stalls_Percent_3_Bucket_5: 4778
Non-critical_ROB_Stalls_Percent_3_Bucket_5: 991
Critical_ROB_Stalls_Percent_3_Bucket_6: 5358
Non-critical_ROB_Stalls_Percent_3_Bucket_6: 617
Critical_ROB_Stalls_Percent_4_Bucket_0: 1500368
Non-critical_ROB_Stalls_Percent_4_Bucket_0: 849564
Critical_ROB_Stalls_Percent_4_Bucket_1: 570089
Non-critical_ROB_Stalls_Percent_4_Bucket_1: 131834
Critical_ROB_Stalls_Percent_4_Bucket_2: 211907
Non-critical_ROB_Stalls_Percent_4_Bucket_2: 23968
Critical_ROB_Stalls_Percent_4_Bucket_3: 55273
Non-critical_ROB_Stalls_Percent_4_Bucket_3: 4715
Critical_ROB_Stalls_Percent_4_Bucket_4: 18685
Non-critical_ROB_Stalls_Percent_4_Bucket_4: 1836
Critical_ROB_Stalls_Percent_4_Bucket_5: 4781
Non-critical_ROB_Stalls_Percent_4_Bucket_5: 988
Critical_ROB_Stalls_Percent_4_Bucket_6: 5358
Non-critical_ROB_Stalls_Percent_4_Bucket_6: 617
Critical_ROB_Stalls_Percent_5_Bucket_0: 1636310
Non-critical_ROB_Stalls_Percent_5_Bucket_0: 713622
Critical_ROB_Stalls_Percent_5_Bucket_1: 599709
Non-critical_ROB_Stalls_Percent_5_Bucket_1: 102214
Critical_ROB_Stalls_Percent_5_Bucket_2: 214829
Non-critical_ROB_Stalls_Percent_5_Bucket_2: 21046
Critical_ROB_Stalls_Percent_5_Bucket_3: 55305
Non-critical_ROB_Stalls_Percent_5_Bucket_3: 4683
Critical_ROB_Stalls_Percent_5_Bucket_4: 18688
Non-critical_ROB_Stalls_Percent_5_Bucket_4: 1833
Critical_ROB_Stalls_Percent_5_Bucket_5: 4781
Non-critical_ROB_Stalls_Percent_5_Bucket_5: 988
Critical_ROB_Stalls_Percent_5_Bucket_6: 5358
Non-critical_ROB_Stalls_Percent_5_Bucket_6: 617
Critical_ROB_Stalls_Percent_6_Bucket_0: 1784861
Non-critical_ROB_Stalls_Percent_6_Bucket_0: 565071
Critical_ROB_Stalls_Percent_6_Bucket_1: 616420
Non-critical_ROB_Stalls_Percent_6_Bucket_1: 85503
Critical_ROB_Stalls_Percent_6_Bucket_2: 218580
Non-critical_ROB_Stalls_Percent_6_Bucket_2: 17295
Critical_ROB_Stalls_Percent_6_Bucket_3: 55412
Non-critical_ROB_Stalls_Percent_6_Bucket_3: 4576
Critical_ROB_Stalls_Percent_6_Bucket_4: 18713
Non-critical_ROB_Stalls_Percent_6_Bucket_4: 1808
Critical_ROB_Stalls_Percent_6_Bucket_5: 4796
Non-critical_ROB_Stalls_Percent_6_Bucket_5: 973
Critical_ROB_Stalls_Percent_6_Bucket_6: 5368
Non-critical_ROB_Stalls_Percent_6_Bucket_6: 607
Critical_ROB_Stalls_Percent_7_Bucket_0: 1931476
Non-critical_ROB_Stalls_Percent_7_Bucket_0: 418456
Critical_ROB_Stalls_Percent_7_Bucket_1: 635506
Non-critical_ROB_Stalls_Percent_7_Bucket_1: 66417
Critical_ROB_Stalls_Percent_7_Bucket_2: 221448
Non-critical_ROB_Stalls_Percent_7_Bucket_2: 14427
Critical_ROB_Stalls_Percent_7_Bucket_3: 55595
Non-critical_ROB_Stalls_Percent_7_Bucket_3: 4393
Critical_ROB_Stalls_Percent_7_Bucket_4: 18791
Non-critical_ROB_Stalls_Percent_7_Bucket_4: 1730
Critical_ROB_Stalls_Percent_7_Bucket_5: 4805
Non-critical_ROB_Stalls_Percent_7_Bucket_5: 964
Critical_ROB_Stalls_Percent_7_Bucket_6: 5379
Non-critical_ROB_Stalls_Percent_7_Bucket_6: 596
Critical_ROB_Stalls_Percent_8_Bucket_0: 2076530
Non-critical_ROB_Stalls_Percent_8_Bucket_0: 273402
Critical_ROB_Stalls_Percent_8_Bucket_1: 653983
Non-critical_ROB_Stalls_Percent_8_Bucket_1: 47940
Critical_ROB_Stalls_Percent_8_Bucket_2: 224299
Non-critical_ROB_Stalls_Percent_8_Bucket_2: 11576
Critical_ROB_Stalls_Percent_8_Bucket_3: 56684
Non-critical_ROB_Stalls_Percent_8_Bucket_3: 3304
Critical_ROB_Stalls_Percent_8_Bucket_4: 19473
Non-critical_ROB_Stalls_Percent_8_Bucket_4: 1048
Critical_ROB_Stalls_Percent_8_Bucket_5: 5508
Non-critical_ROB_Stalls_Percent_8_Bucket_5: 261
Critical_ROB_Stalls_Percent_8_Bucket_6: 5807
Non-critical_ROB_Stalls_Percent_8_Bucket_6: 168
Average ROB occupancy Load Stall Begin: 36.9434
Average ROB occupancy Load Stall End: 45.6842
Min ROB occupancy Load Stall Begin: 1
Max ROB occupancy Load Stall Begin: 352
Min ROB occupancy Load Stall End: 1
Max ROB occupancy Load Stall End: 352
Average ROB occupancy Critical Load Stall Begin: 126.752
Average ROB occupancy Critical Load Stall End: 132.275
Min ROB occupancy Critical Load Stall Begin: 3
Max ROB occupancy Critical Load Stall Begin: 352
Min ROB occupancy Critical Load Stall End: 3
Max ROB occupancy Critical Load Stall End: 352
 ROB Load Stall Begin Bucket Count 0: 2609226
 ROB Load Stall End Bucket Count 0: 2349932
 ROB Critical Load Stall Begin Bucket Count 0: 7600
 ROB Critical Load Stall End Bucket Count 0: 6592
 ROB Load Stall Begin Bucket Count 1: 520327
 ROB Load Stall End Bucket Count 1: 701923
 ROB Critical Load Stall Begin Bucket Count 1: 24957
 ROB Critical Load Stall End Bucket Count 1: 22475
 ROB Load Stall Begin Bucket Count 2: 178326
 ROB Load Stall End Bucket Count 2: 235875
 ROB Critical Load Stall Begin Bucket Count 2: 35535
 ROB Critical Load Stall End Bucket Count 2: 36639
 ROB Load Stall Begin Bucket Count 3: 46692
 ROB Load Stall End Bucket Count 3: 59988
 ROB Critical Load Stall Begin Bucket Count 3: 10157
 ROB Critical Load Stall End Bucket Count 3: 12125
 ROB Load Stall Begin Bucket Count 4: 15483
 ROB Load Stall End Bucket Count 4: 20521
 ROB Critical Load Stall Begin Bucket Count 4: 4213
 ROB Critical Load Stall End Bucket Count 4: 4423
 ROB Load Stall Begin Bucket Count 5: 4580
 ROB Load Stall End Bucket Count 5: 5769
 ROB Critical Load Stall Begin Bucket Count 5: 2303
 ROB Critical Load Stall End Bucket Count 5: 2328
 ROB Load Stall Begin Bucket Count 6: 5349
 ROB Load Stall End Bucket Count 6: 5975
 ROB Critical Load Stall Begin Bucket Count 6: 4010
 ROB Critical Load Stall End Bucket Count 6: 4193
PIST Tag Read Accesses: 2443558
PIST Read Accesses: 1221779
PIST Tag Write Accesses: 2443558
PIST Write Accesses: 1221779
Criticality detector called times: 3291208
Max global_stall_cycles_count: 1998472
Threshold Modified: 1 times, factor: -1
Sturdy critical IP cache stats: 
 Unused entries: 0
CIC Tag Read Accesses: 0
CIC Read Accesses: 0
CIC Tag Write Accesses: 0
CIC Write Accesses: 0
Wobbly critical IP cache stats: 
 Unused entries: 124
CIC Tag Read Accesses: 82736632
CIC Read Accesses: 0
CIC Tag Write Accesses: 4
CIC Write Accesses: 0
ITLB TOTAL     ACCESS:   10422760  HIT:    9680850  MISS:     741910  HIT %:    92.8818  MISS %:    7.11817   MPKI: 14.8382
ITLB LOAD TRANSLATION ACCESS:    8315443  HIT:    8262217  MISS:      53226  HIT %:    99.3599  MISS %:   0.640086   MPKI: 1.06452
ITLB TRANSLATION FROM L1D PREFETCHER ACCESS:    2107317  HIT:    1418633  MISS:     688684  HIT %:    67.3194  MISS %:    32.6806   MPKI: 13.7737
ITLBprefetch_cycle_count: 0 prefetches_per_prefetch_cycle: -nan
ITLB PREFETCH  REQUESTED:          0  ISSUED:          0  USEFUL:     550710  USELESS:     137974
ITLB USEFUL LOAD PREFETCHES:     550710 PREFETCH ISSUED TO LOWER LEVEL:          0  ACCURACY: inf
ITLB TIMELY PREFETCHES:     550710 LATE PREFETCHES: 117 DROPPED PREFETCHES: 4801
ITLB PREFETCHES SAME FILL-ORIGIN LEVEL: 0 DIFFERENT FILL-ORIGIN LEVEL: 0
ITLB AVERAGE MISS LATENCY: 8441.5 cycles
ITLB RQ	ACCESS:   15753387	FORWARD:          0	MERGED:    5283584	TO_CACHE:   10469803

DTLB TOTAL     ACCESS:   11106269  HIT:   10567293  MISS:     538976  HIT %:    95.1471  MISS %:     4.8529   MPKI: 10.7795
DTLB LOAD TRANSLATION ACCESS:   11106269  HIT:   10567293  MISS:     538976  HIT %:    95.1471  MISS %:     4.8529   MPKI: 10.7795
DTLBprefetch_cycle_count: 0 prefetches_per_prefetch_cycle: -nan
DTLB PREFETCH  REQUESTED:          0  ISSUED:          0  USEFUL:          0  USELESS:          0
DTLB USEFUL LOAD PREFETCHES:          0 PREFETCH ISSUED TO LOWER LEVEL:          0  ACCURACY: -nan
DTLB TIMELY PREFETCHES:          0 LATE PREFETCHES: 0 DROPPED PREFETCHES: 0
DTLB PREFETCHES SAME FILL-ORIGIN LEVEL: 0 DIFFERENT FILL-ORIGIN LEVEL: 0
DTLB AVERAGE MISS LATENCY: 10.8778 cycles
DTLB RQ	ACCESS:   14598096	FORWARD:          0	MERGED:    3464119	TO_CACHE:   11133977

STLB TOTAL     ACCESS:    1280886  HIT:    1262143  MISS:      18743  HIT %:    98.5367  MISS %:    1.46328   MPKI: 0.37486
STLB LOAD TRANSLATION ACCESS:     592085  HIT:     576585  MISS:      15500  HIT %:    97.3821  MISS %:    2.61787   MPKI: 0.31
STLB TRANSLATION FROM L1D PREFETCHER ACCESS:     688801  HIT:     685558  MISS:       3243  HIT %:    99.5292  MISS %:   0.470818   MPKI: 0.06486
STLBprefetch_cycle_count: 0 prefetches_per_prefetch_cycle: -nan
STLB PREFETCH  REQUESTED:          0  ISSUED:          0  USEFUL:       1025  USELESS:       2219
STLB USEFUL LOAD PREFETCHES:       1025 PREFETCH ISSUED TO LOWER LEVEL:          0  ACCURACY: inf
STLB TIMELY PREFETCHES:       1025 LATE PREFETCHES: 0 DROPPED PREFETCHES: 4801
STLB PREFETCHES SAME FILL-ORIGIN LEVEL: 0 DIFFERENT FILL-ORIGIN LEVEL: 0
STLB AVERAGE MISS LATENCY: 59.09 cycles
STLB RQ	ACCESS:    1285687	FORWARD:          0	MERGED:          0	TO_CACHE:    1285687

STLB Hit, L1D data hit: 0
STLB Hit, L2C data hit: 0
STLB Hit, LLC data hit: 0
STLB Hit, LLC data miss: 0
STLB STLB hints to L2: 0
L1D TOTAL     ACCESS:   14060144  HIT:   12619404  MISS:    1440740  HIT %:     89.753  MISS %:     10.247   MPKI: 28.8148
L1D LOAD      ACCESS:    7871982  HIT:    6738174  MISS:    1133808  HIT %:    85.5969  MISS %:    14.4031   MPKI: 22.6762
L1D RFO       ACCESS:    6188162  HIT:    5881230  MISS:     306932  HIT %:      95.04  MISS %:    4.95999   MPKI: 6.13864
L1Dprefetch_cycle_count: 0 prefetches_per_prefetch_cycle: -nan
L1D PREFETCH  REQUESTED:          0  ISSUED:          0  USEFUL:          0  USELESS:          0
L1D USEFUL LOAD PREFETCHES:          0 PREFETCH ISSUED TO LOWER LEVEL:          0  ACCURACY: -nan
L1D TIMELY PREFETCHES:          0 LATE PREFETCHES: 0 DROPPED PREFETCHES: 0
L1D PREFETCHES SAME FILL-ORIGIN LEVEL: 0 DIFFERENT FILL-ORIGIN LEVEL: 0
L1D AVERAGE MISS LATENCY: 20.8542 cycles
L1D RQ	ACCESS:   11213662	FORWARD:          0	MERGED:    3155457	TO_CACHE:    7913222
L1D WQ	ACCESS:    6759297	FORWARD:     144983	MERGED:      74423	TO_CACHE:    6684874

L1D UNIQUE REGIONS ACCESSED: 0
L1D REGIONS CONFLICTS: 0
L1D Cross Page Prefetch Requests: 0
L1D Same Page Prefetch Requests: 0
L1D ROI Sum of L1D PQ occupancy: 0
L1D PREFETCHES PUSHED FROM L2C: 0
L1I TOTAL     ACCESS:   15669067  HIT:   11468438  MISS:    4200629  HIT %:    73.1916  MISS %:    26.8084   MPKI: 84.0126
L1I LOAD      ACCESS:    9764482  HIT:    9675107  MISS:      89375  HIT %:    99.0847  MISS %:   0.915307   MPKI: 1.7875
L1I PREFETCH  ACCESS:    5904585  HIT:    1793331  MISS:    4111254  HIT %:    30.3718  MISS %:    69.6282   MPKI: 82.2251
L1Iprefetch_cycle_count: 0 prefetches_per_prefetch_cycle: inf
L1I PREFETCH  REQUESTED:    6100389  ISSUED:    6083649  USEFUL:    2922803  USELESS:    1188458
L1I USEFUL LOAD PREFETCHES:    2922803 PREFETCH ISSUED TO LOWER LEVEL:    4127623  ACCURACY: 70.8108
L1I TIMELY PREFETCHES:    2922803 LATE PREFETCHES: 15830 DROPPED PREFETCHES: 11196
L1I PREFETCHES SAME FILL-ORIGIN LEVEL: 4127623 DIFFERENT FILL-ORIGIN LEVEL: 0
L1I AVERAGE MISS LATENCY: 210645 cycles
L1I RQ	ACCESS:   13592717	FORWARD:          0	MERGED:    3818687	TO_CACHE:    9774030
L1I PQ	ACCESS:    6083649	FORWARD:          0	MERGED:     104292	TO_CACHE:    5979357

BTB TOTAL     ACCESS:    6140417  HIT:    4333497  MISS:    1806920  HIT %:    70.5733  MISS %:    29.4267   MPKI: 36.1384
BTB BRANCH_DIRECT_JUMP	ACCESS:     523489  HIT:     378260  MISS:     145229
BTB BRANCH_INDIRECT	ACCESS:     166997  HIT:     132278  MISS:      34719
BTB BRANCH_CONDITIONAL	ACCESS:    3096552  HIT:    2604377  MISS:     492175
BTB BRANCH_DIRECT_CALL	ACCESS:     989486  HIT:     640103  MISS:     349383
BTB BRANCH_INDIRECT_CALL	ACCESS:     187202  HIT:     119541  MISS:      67661
BTB BRANCH_RETURN	ACCESS:    1176691  HIT:     458938  MISS:     717753
BTB BRANCH_OTHER ACCESS:          0  HIT:          0  MISS:          0

L2C TOTAL     ACCESS:    6286511  HIT:    5920562  MISS:     365949  HIT %:    94.1788  MISS %:    5.82118   MPKI: 7.31898
L2C LOAD      ACCESS:    1207304  HIT:    1073108  MISS:     134196  HIT %:    88.8847  MISS %:    11.1153   MPKI: 2.68392
L2C DATA LOAD MPKI: 2.52882
L2C INSTRUCTION LOAD MPKI: 0.1551
L2C RFO       ACCESS:     306932  HIT:     281865  MISS:      25067  HIT %:     91.833  MISS %:    8.16696   MPKI: 0.50134
L2C PREFETCH  ACCESS:    4151437  HIT:    3968404  MISS:     183033  HIT %:    95.5911  MISS %:    4.40891   MPKI: 3.66066
L2C DATA PREFETCH MPKI: 0.05588
L2C INSTRUCTION PREFETCH MPKI: 3.60478
L2C WRITEBACK ACCESS:     586509  HIT:     573939  MISS:      12570  HIT %:    97.8568  MISS %:    2.14319   MPKI: 0.2514
L2C LOAD TRANSLATION ACCESS:      23204  HIT:      13135  MISS:      10069  HIT %:    56.6066  MISS %:    43.3934   MPKI: 0.20138
L2C TRANSLATION FROM L1D PREFETCHER ACCESS:      11125  HIT:      10111  MISS:       1014  HIT %:    90.8854  MISS %:    9.11461   MPKI: 0.02028
L2Cprefetch_cycle_count: 7150 prefetches_per_prefetch_cycle: 3.46629
L2C PREFETCH  REQUESTED:      24784  ISSUED:      24784  USEFUL:       4243  USELESS:     180146
L2C USEFUL LOAD PREFETCHES:       4243 PREFETCH ISSUED TO LOWER LEVEL:     183260  ACCURACY: 2.31529
L2C TIMELY PREFETCHES:       4243 LATE PREFETCHES: 227 DROPPED PREFETCHES: 0
L2C PREFETCHES SAME FILL-ORIGIN LEVEL: 3021 DIFFERENT FILL-ORIGIN LEVEL: 0
L2C AVERAGE MISS LATENCY: 40.7243 cycles
L2C RQ	ACCESS:    1548613	FORWARD:          0	MERGED:          0	TO_CACHE:    1548565
L2C WQ	ACCESS:     586509	FORWARD:         48	MERGED:          0	TO_CACHE:     586509
L2C PQ	ACCESS:    4151870	FORWARD:          0	MERGED:          0	TO_CACHE:    4151870

L2C Instructions Evicting Data 73534
L2C Translations Evicting Data 6869
L2C Data Evicting Data 81845
L2C Instructions Evicting Instructions 111263
L2C Translations Evicting Instructions 3185
L2C Data Evicting Instructions 65744
L2C Instructions Evicting Translations 3197
L2C Translations Evicting Translations 1029
L2C Data Evicting Translations 6713
L2C Dense regions hint from L2: 0
PSCL5 TOTAL     ACCESS:      23544  HIT:      23544  MISS:          0  HIT %:        100  MISS %:          0   MPKI: 0
PSCL5 LOAD TRANSLATION ACCESS:      15500  HIT:      15500  MISS:          0  HIT %:        100  MISS %:          0   MPKI: 0
PSCL5 TRANSLATION FROM L1D PREFETCHER ACCESS:       8044  HIT:       8044  MISS:          0  HIT %:        100  MISS %:          0   MPKI: 0
PSCL5prefetch_cycle_count: 0 prefetches_per_prefetch_cycle: -nan
PSCL5 PREFETCH  REQUESTED:          0  ISSUED:          0  USEFUL:          0  USELESS:          0
PSCL5 USEFUL LOAD PREFETCHES:          0 PREFETCH ISSUED TO LOWER LEVEL:          0  ACCURACY: -nan
PSCL5 TIMELY PREFETCHES:          0 LATE PREFETCHES: 0 DROPPED PREFETCHES: 0
PSCL5 PREFETCHES SAME FILL-ORIGIN LEVEL: 0 DIFFERENT FILL-ORIGIN LEVEL: 0

PSCL4 TOTAL     ACCESS:      22960  HIT:      22772  MISS:        188  HIT %:    99.1812  MISS %:   0.818815   MPKI: 0.00376
PSCL4 LOAD TRANSLATION ACCESS:      15041  HIT:      14853  MISS:        188  HIT %:    98.7501  MISS %:    1.24992   MPKI: 0.00376
PSCL4 TRANSLATION FROM L1D PREFETCHER ACCESS:       7919  HIT:       7919  MISS:          0  HIT %:        100  MISS %:          0   MPKI: 0
PSCL4prefetch_cycle_count: 0 prefetches_per_prefetch_cycle: -nan
PSCL4 PREFETCH  REQUESTED:          0  ISSUED:          0  USEFUL:          0  USELESS:          0
PSCL4 USEFUL LOAD PREFETCHES:          0 PREFETCH ISSUED TO LOWER LEVEL:          0  ACCURACY: -nan
PSCL4 TIMELY PREFETCHES:          0 LATE PREFETCHES: 0 DROPPED PREFETCHES: 0
PSCL4 PREFETCHES SAME FILL-ORIGIN LEVEL: 0 DIFFERENT FILL-ORIGIN LEVEL: 0

PSCL3 TOTAL     ACCESS:      23384  HIT:      23196  MISS:        188  HIT %:     99.196  MISS %:   0.803969   MPKI: 0.00376
PSCL3 LOAD TRANSLATION ACCESS:      15465  HIT:      15277  MISS:        188  HIT %:    98.7844  MISS %:    1.21565   MPKI: 0.00376
PSCL3 TRANSLATION FROM L1D PREFETCHER ACCESS:       7919  HIT:       7919  MISS:          0  HIT %:        100  MISS %:          0   MPKI: 0
PSCL3prefetch_cycle_count: 0 prefetches_per_prefetch_cycle: -nan
PSCL3 PREFETCH  REQUESTED:          0  ISSUED:          0  USEFUL:          0  USELESS:          0
PSCL3 USEFUL LOAD PREFETCHES:          0 PREFETCH ISSUED TO LOWER LEVEL:          0  ACCURACY: -nan
PSCL3 TIMELY PREFETCHES:          0 LATE PREFETCHES: 0 DROPPED PREFETCHES: 0
PSCL3 PREFETCHES SAME FILL-ORIGIN LEVEL: 0 DIFFERENT FILL-ORIGIN LEVEL: 0

PSCL2 TOTAL     ACCESS:      21594  HIT:      13185  MISS:       8409  HIT %:    61.0586  MISS %:    38.9414   MPKI: 0.16818
PSCL2 LOAD TRANSLATION ACCESS:      16525  HIT:       8116  MISS:       8409  HIT %:    49.1135  MISS %:    50.8865   MPKI: 0.16818
PSCL2 TRANSLATION FROM L1D PREFETCHER ACCESS:       5069  HIT:       5069  MISS:          0  HIT %:        100  MISS %:          0   MPKI: 0
PSCL2prefetch_cycle_count: 0 prefetches_per_prefetch_cycle: -nan
PSCL2 PREFETCH  REQUESTED:          0  ISSUED:          0  USEFUL:          0  USELESS:          0
PSCL2 USEFUL LOAD PREFETCHES:          0 PREFETCH ISSUED TO LOWER LEVEL:          0  ACCURACY: -nan
PSCL2 TIMELY PREFETCHES:          0 LATE PREFETCHES: 0 DROPPED PREFETCHES: 0
PSCL2 PREFETCHES SAME FILL-ORIGIN LEVEL: 0 DIFFERENT FILL-ORIGIN LEVEL: 0

LLC TOTAL     ACCESS:     389048  HIT:     358341  MISS:      30707  HIT %:    92.1071  MISS %:    7.89286   MPKI: 0.61414
LLC LOAD      ACCESS:     133970  HIT:     108074  MISS:      25896  HIT %:    80.6703  MISS %:    19.3297   MPKI: 0.51792
LLC RFO       ACCESS:      25065  HIT:      23141  MISS:       1924  HIT %:     92.324  MISS %:    7.67604   MPKI: 0.03848
LLC PREFETCH  ACCESS:     183260  HIT:     181476  MISS:       1784  HIT %:    99.0265  MISS %:    0.97348   MPKI: 0.03568
LLC WRITEBACK ACCESS:      35670  HIT:      35519  MISS:        151  HIT %:    99.5767  MISS %:   0.423325   MPKI: 0.00302
LLC LOAD TRANSLATION ACCESS:      10069  HIT:       9129  MISS:        940  HIT %:    90.6644  MISS %:    9.33558   MPKI: 0.0188
LLC TRANSLATION FROM L1D PREFETCHER ACCESS:       1014  HIT:       1002  MISS:         12  HIT %:    98.8166  MISS %:    1.18343   MPKI: 0.00024
LLCprefetch_cycle_count: 0 prefetches_per_prefetch_cycle: -nan
LLC PREFETCH  REQUESTED:          0  ISSUED:          0  USEFUL:        116  USELESS:       1685
LLC USEFUL LOAD PREFETCHES:        116 PREFETCH ISSUED TO LOWER LEVEL:       1784  ACCURACY: 6.50224
LLC TIMELY PREFETCHES:        116 LATE PREFETCHES: 0 DROPPED PREFETCHES: 0
LLC PREFETCHES SAME FILL-ORIGIN LEVEL: 0 DIFFERENT FILL-ORIGIN LEVEL: 0
LLC AVERAGE MISS LATENCY: 139.749 cycles
LLC RQ	ACCESS:     170119	FORWARD:          0	MERGED:          0	TO_CACHE:     170118
LLC WQ	ACCESS:      35670	FORWARD:          1	MERGED:          0	TO_CACHE:      35670
LLC PQ	ACCESS:     183260	FORWARD:          0	MERGED:          0	TO_CACHE:     183260

LLC Dense regions hint to LLC: 0

RAW hits: 1075869
Loads Generated: 12289536
Loads sent to L1D: 11213662
Stores Generated: 6759292
Stores sent to L1D: 6759297
Major fault: 0 Minor fault: 6256
Allocated PAGES: 6256
I-Shadow cache 408 bytes
Touched + WorthPF tables 6144 bytes 
MMA filter 174 bytes 
FNL filter 272 bytes 
TOTAL PREFETCHER STORAGE SIZE: 25174 bytes
CPU 0 L1I next line prefetcher final stats
total_pref_operate_instances_l2: 3931412
dynamic_config_counter_instances_l2_1: 3813055
dynamic_config_counter_instances_l2_2: 56866
dynamic_config_counter_instances_l2_3: 61491
dynamic_config_counter_instances_l2_4: 0
dynamic_config_counter_instances_l2_5: 0
[Bingo] PHT Access: 12724
[Bingo] PHT Hit PC+Addr: 6266
[Bingo] PHT Hit PC+Offs: 859
[Bingo] PHT Miss: 5599
[Bingo] Prefetch PC+Addr: 0
[Bingo] Prefetch PC+Offs: 0
[Bingo] Useful PC+Addr: 0
[Bingo] Useful PC+Offs: 0
[Bingo] Useless PC+Addr: 0
[Bingo] Useless PC+Offs: 0
[Bingo] L1 Prefetch per Region: 0
[Bingo] L2 Prefetch per Region: 5.21011
[Bingo] L3 Prefetch per Region: 0
[Bingo] No Prefetch per Region: 26.7899
[Bingo] Number of Voters Mean: 2.24796
[Bingo] Number of Voters SD: 2.18263
PHT read accesses: 27398
PHT write accesses: 6064
AT read accesses: 34390
AT write accesses: 39316
FT read accesses: 18992
FT write accesses: 12724
PS read accesses: 14650
PS write accesses: 7125
PHT tag read accesses: 214708
PHT tag write accesses: 12330
AT tag read accesses: 6875800
AT tag write accesses: 40374
FT tag read accesses: 6612386
FT tag write accesses: 25493
PS tag read accesses: 975890
PS tag write accesses: 21775

DRAM Statistics
 CHANNEL 0
 RQ ROW_BUFFER_HIT:      10483  ROW_BUFFER_MISS:      20073
 DBUS_CONGESTED:          8
 WQ ROW_BUFFER_HIT:        610  ROW_BUFFER_MISS:       2034  FULL:          0

 AVG_CONGESTED_CYCLE: 4
 All warmup complete: 2
Channel 0 Bank busy for read cycles: 0
Channel 0 Bank busy for write cycles: 0
Channel 0
Rank 0
0banks busy for read cycles: 77275400
0banks busy for write cycles: 1732
1banks busy for read cycles: 2201043
1banks busy for write cycles: 438180
2banks busy for read cycles: 354991
2banks busy for write cycles: 125673
3banks busy for read cycles: 109485
3banks busy for write cycles: 48684
4banks busy for read cycles: 20383
4banks busy for write cycles: 18925
5banks busy for read cycles: 7529
5banks busy for write cycles: 5514
6banks busy for read cycles: 5694
6banks busy for write cycles: 1475
7banks busy for read cycles: 6181
7banks busy for write cycles: 0
8banks busy for read cycles: 12382
8banks busy for write cycles: 0

CPU 0 Branch Prediction Accuracy: 99.7093% MPKI: 0.54708 Average ROB Occupancy at Mispredict: 90.7241
Branch types
NOT_BRANCH: 40590650 81.1813%
BRANCH_DIRECT_JUMP: 523489 1.04698%
BRANCH_INDIRECT: 166997 0.333994%
BRANCH_CONDITIONAL: 6365151 12.7303%
BRANCH_DIRECT_CALL: 989486 1.97897%
BRANCH_INDIRECT_CALL: 187202 0.374404%
BRANCH_RETURN: 1176691 2.35338%
BRANCH_OTHER: 0 0%

DRAM PAGES: 1048576
Allocated PAGES: 6256
