
*** ChampSim Multicore Out-of-Order Simulator ***

Warmup Instructions: 50000000
Simulation Instructions: 50000000
Number of CPUs: 1
LLC sets: 2048
LLC ways: 16
Off-chip DRAM Size: 4096 MB Channels: 1 Width: 64-bit Data Rate: 6400 MT/s
CPU 0 runs ../IPC-traces//server_024.champsimtrace.xz
.xz
NUM_OF_IPS_IN_CRITICAL_IP_TRAINING: 64
NUM_OF_CRITICAL_IP_TRAINING_TABLE_WAYS: 2
NUM_OF_CRITICAL_IP_TRAINING_TABLE_SETS: 32
WOBBLY_CRITICAL_IP_CACHE_SETS: 32
WOBBLY_CRITICAL_IP_CACHE_WAYS: 4
BTB has LRU replacement policy
ITLB has LRU replacement policy
DTLB has LRU replacement policy
STLB has LRU replacement policy
CPU 0 L1I next line prefetcher
L1I has LRU replacement policy
IP Table Entries: 64
L1D has LRU replacement policy
Initialize SRRIP state for L2C
Initialize DRRIP state for LLC
Heartbeat CPU 0 instructions: 10000000 cycles: 2873773 heartbeat IPC: 3.47975 cumulative IPC: 3.47975 (Simulation time: 0 hr 5 min 8 sec) 
Heartbeat CPU 0 instructions: 20000002 cycles: 5741506 heartbeat IPC: 3.48708 cumulative IPC: 3.48341 (Simulation time: 0 hr 10 min 4 sec) 
Heartbeat CPU 0 instructions: 30000002 cycles: 8611381 heartbeat IPC: 3.48447 cumulative IPC: 3.48376 (Simulation time: 0 hr 14 min 47 sec) 
Heartbeat CPU 0 instructions: 40000000 cycles: 11481446 heartbeat IPC: 3.48424 cumulative IPC: 3.48388 (Simulation time: 0 hr 19 min 21 sec) 
Heartbeat CPU 0 instructions: 50000001 cycles: 14348609 heartbeat IPC: 3.48777 cumulative IPC: 3.48466 (Simulation time: 0 hr 23 min 28 sec) 

Warmup complete CPU 0 instructions: 50000001 cycles: 14348609 (Simulation time: 0 hr 23 min 28 sec) 

% increase in all ip prefetch 394.704
% increase in all ip prefetch 3.45117
Heartbeat CPU 0 instructions: 60000003 cycles: 30152529 heartbeat IPC: 0.632755 cumulative IPC: 0.632755 (Simulation time: 0 hr 27 min 3 sec) 
Heartbeat CPU 0 instructions: 70000000 cycles: 46015222 heartbeat IPC: 0.63041 cumulative IPC: 0.63158 (Simulation time: 0 hr 30 min 29 sec) 
*** Reached end of trace for Core: 0 Repeating trace: ../IPC-traces//server_024.champsimtrace.xz
Heartbeat CPU 0 instructions: 80000003 cycles: 61818929 heartbeat IPC: 0.632763 cumulative IPC: 0.631974 (Simulation time: 0 hr 33 min 56 sec) 
Heartbeat CPU 0 instructions: 90000003 cycles: 77675040 heartbeat IPC: 0.630672 cumulative IPC: 0.631648 (Simulation time: 0 hr 37 min 25 sec) 
Heartbeat CPU 0 instructions: 100000002 cycles: 93566320 heartbeat IPC: 0.629276 cumulative IPC: 0.631172 (Simulation time: 0 hr 40 min 11 sec) 
Finished CPU 0 instructions: 50000001 cycles: 79217711 cumulative IPC: 0.631172 (Simulation time: 0 hr 40 min 11 sec) 

ChampSim completed all CPUs

Region of Interest Statistics

CPU 0 cumulative IPC: 0.631172 instructions: 50000001 cycles: 79217711

CPU 0 Average Load ROB stall cycles: 1.975e+07
CPU 0 Fraction of times ROB stalled by Loads: 36.5935
CPU 0 Percentage of Load stall cycles in Total stall cycles: 2.77095e+08
Issued all: 27858903
Issued LT all: 22024551
rob_not_full_when_issued_lt_all: 21511319
Issued LT one: 17041234
rob_not_full_when_issued_lt_one: 16594061
 Total stall cycles: 66048105
 Total load stall cycles: 183015704954772
CPU 0 NUM of IPS identified critical: 0
CPU 0 Num of Load IPs stalling ROB: 12156
Threshold modification factor: -1
Max PIST entries: 64
Min PIST entries: 0
Avg PIST entries: 32
Trouble in retire width: 0.894802
MaC = Marked as critical.
lt_50_percent_before_Mac: 0
gt_90_percent_before_Mac: 0
gt_75_percent_before_Mac: 0
gt_50_percent_before_Mac: 0
stall_proportion_bin_same_before_after: 0
stall_proportion_bin_lower_before_after: 0
stall_proportion_bin_upper_before_after: 0
average_stall_proportion_before: -nan
average_stall_proportion_after: -nan
Critical IP stalls, total frequency: 0
Non-critical IP stalls, total frequency: 3390975
Total Freq all stalling IPs: 3390975
stat_90_percent_critical_ip_stalls_freq: 3052139
stat_90_percent_non_critical_ip_stalls_freq: 338836
Critical_IP_ROB_Stalls_Bucket_0: 0
Non-critical_IP_ROB_Stalls_Bucket_0: 2314594
Critical_IP_ROB_Stalls_Bucket_1: 0
Non-critical_IP_ROB_Stalls_Bucket_1: 717839
Critical_IP_ROB_Stalls_Bucket_2: 0
Non-critical_IP_ROB_Stalls_Bucket_2: 244575
Critical_IP_ROB_Stalls_Bucket_3: 0
Non-critical_IP_ROB_Stalls_Bucket_3: 58933
Critical_IP_ROB_Stalls_Bucket_4: 0
Non-critical_IP_ROB_Stalls_Bucket_4: 20988
Critical_IP_ROB_Stalls_Bucket_5: 0
Non-critical_IP_ROB_Stalls_Bucket_5: 10287
Critical_IP_ROB_Stalls_Bucket_6: 0
Non-critical_IP_ROB_Stalls_Bucket_6: 23759
0 => IPs accounting for >50 percent of stalls, 1 => 55, 2 => 60, 3 => 65 and so on till 90.
percent50: 50.023 num IPs:  434
percent55: 55.0215 num IPs: 616
percent60: 60.008 num IPs: 862
percent65: 65.0148 num IPs: 1121
percent70: 70.0057 num IPs: 1427
percent75: 75.0033 num IPs: 1808
percent80: 80.006 num IPs: 2291
percent85: 85.0077 num IPs: 2796
percent90: 90.0071 num IPs: 3349
Critical_ROB_Stalls_Percent_0_Bucket_0: 910924
Non-critical_ROB_Stalls_Percent_0_Bucket_0: 1403670
Critical_ROB_Stalls_Percent_0_Bucket_1: 488894
Non-critical_ROB_Stalls_Percent_0_Bucket_1: 228945
Critical_ROB_Stalls_Percent_0_Bucket_2: 196688
Non-critical_ROB_Stalls_Percent_0_Bucket_2: 47887
Critical_ROB_Stalls_Percent_0_Bucket_3: 50972
Non-critical_ROB_Stalls_Percent_0_Bucket_3: 7961
Critical_ROB_Stalls_Percent_0_Bucket_4: 17957
Non-critical_ROB_Stalls_Percent_0_Bucket_4: 3031
Critical_ROB_Stalls_Percent_0_Bucket_5: 9041
Non-critical_ROB_Stalls_Percent_0_Bucket_5: 1246
Critical_ROB_Stalls_Percent_0_Bucket_6: 21791
Non-critical_ROB_Stalls_Percent_0_Bucket_6: 1968
Critical_ROB_Stalls_Percent_1_Bucket_0: 1032319
Non-critical_ROB_Stalls_Percent_1_Bucket_0: 1282275
Critical_ROB_Stalls_Percent_1_Bucket_1: 524890
Non-critical_ROB_Stalls_Percent_1_Bucket_1: 192949
Critical_ROB_Stalls_Percent_1_Bucket_2: 205329
Non-critical_ROB_Stalls_Percent_1_Bucket_2: 39246
Critical_ROB_Stalls_Percent_1_Bucket_3: 53016
Non-critical_ROB_Stalls_Percent_1_Bucket_3: 5917
Critical_ROB_Stalls_Percent_1_Bucket_4: 18537
Non-critical_ROB_Stalls_Percent_1_Bucket_4: 2451
Critical_ROB_Stalls_Percent_1_Bucket_5: 9113
Non-critical_ROB_Stalls_Percent_1_Bucket_5: 1174
Critical_ROB_Stalls_Percent_1_Bucket_6: 22557
Non-critical_ROB_Stalls_Percent_1_Bucket_6: 1202
Critical_ROB_Stalls_Percent_2_Bucket_0: 1160559
Non-critical_ROB_Stalls_Percent_2_Bucket_0: 1154035
Critical_ROB_Stalls_Percent_2_Bucket_1: 556408
Non-critical_ROB_Stalls_Percent_2_Bucket_1: 161431
Critical_ROB_Stalls_Percent_2_Bucket_2: 213965
Non-critical_ROB_Stalls_Percent_2_Bucket_2: 30610
Critical_ROB_Stalls_Percent_2_Bucket_3: 53593
Non-critical_ROB_Stalls_Percent_2_Bucket_3: 5340
Critical_ROB_Stalls_Percent_2_Bucket_4: 18628
Non-critical_ROB_Stalls_Percent_2_Bucket_4: 2360
Critical_ROB_Stalls_Percent_2_Bucket_5: 9132
Non-critical_ROB_Stalls_Percent_2_Bucket_5: 1155
Critical_ROB_Stalls_Percent_2_Bucket_6: 22570
Non-critical_ROB_Stalls_Percent_2_Bucket_6: 1189
Critical_ROB_Stalls_Percent_3_Bucket_0: 1295534
Non-critical_ROB_Stalls_Percent_3_Bucket_0: 1019060
Critical_ROB_Stalls_Percent_3_Bucket_1: 585660
Non-critical_ROB_Stalls_Percent_3_Bucket_1: 132179
Critical_ROB_Stalls_Percent_3_Bucket_2: 218968
Non-critical_ROB_Stalls_Percent_3_Bucket_2: 25607
Critical_ROB_Stalls_Percent_3_Bucket_3: 54031
Non-critical_ROB_Stalls_Percent_3_Bucket_3: 4902
Critical_ROB_Stalls_Percent_3_Bucket_4: 18690
Non-critical_ROB_Stalls_Percent_3_Bucket_4: 2298
Critical_ROB_Stalls_Percent_3_Bucket_5: 9172
Non-critical_ROB_Stalls_Percent_3_Bucket_5: 1115
Critical_ROB_Stalls_Percent_3_Bucket_6: 22579
Non-critical_ROB_Stalls_Percent_3_Bucket_6: 1180
Critical_ROB_Stalls_Percent_4_Bucket_0: 1431954
Non-critical_ROB_Stalls_Percent_4_Bucket_0: 882640
Critical_ROB_Stalls_Percent_4_Bucket_1: 611628
Non-critical_ROB_Stalls_Percent_4_Bucket_1: 106211
Critical_ROB_Stalls_Percent_4_Bucket_2: 225173
Non-critical_ROB_Stalls_Percent_4_Bucket_2: 19402
Critical_ROB_Stalls_Percent_4_Bucket_3: 54553
Non-critical_ROB_Stalls_Percent_4_Bucket_3: 4380
Critical_ROB_Stalls_Percent_4_Bucket_4: 18743
Non-critical_ROB_Stalls_Percent_4_Bucket_4: 2245
Critical_ROB_Stalls_Percent_4_Bucket_5: 9214
Non-critical_ROB_Stalls_Percent_4_Bucket_5: 1073
Critical_ROB_Stalls_Percent_4_Bucket_6: 22601
Non-critical_ROB_Stalls_Percent_4_Bucket_6: 1158
Critical_ROB_Stalls_Percent_5_Bucket_0: 1572782
Non-critical_ROB_Stalls_Percent_5_Bucket_0: 741812
Critical_ROB_Stalls_Percent_5_Bucket_1: 634576
Non-critical_ROB_Stalls_Percent_5_Bucket_1: 83263
Critical_ROB_Stalls_Percent_5_Bucket_2: 229069
Non-critical_ROB_Stalls_Percent_5_Bucket_2: 15506
Critical_ROB_Stalls_Percent_5_Bucket_3: 55903
Non-critical_ROB_Stalls_Percent_5_Bucket_3: 3030
Critical_ROB_Stalls_Percent_5_Bucket_4: 19000
Non-critical_ROB_Stalls_Percent_5_Bucket_4: 1988
Critical_ROB_Stalls_Percent_5_Bucket_5: 9261
Non-critical_ROB_Stalls_Percent_5_Bucket_5: 1026
Critical_ROB_Stalls_Percent_5_Bucket_6: 22742
Non-critical_ROB_Stalls_Percent_5_Bucket_6: 1017
Critical_ROB_Stalls_Percent_6_Bucket_0: 1718373
Non-critical_ROB_Stalls_Percent_6_Bucket_0: 596221
Critical_ROB_Stalls_Percent_6_Bucket_1: 654582
Non-critical_ROB_Stalls_Percent_6_Bucket_1: 63257
Critical_ROB_Stalls_Percent_6_Bucket_2: 231905
Non-critical_ROB_Stalls_Percent_6_Bucket_2: 12670
Critical_ROB_Stalls_Percent_6_Bucket_3: 56620
Non-critical_ROB_Stalls_Percent_6_Bucket_3: 2313
Critical_ROB_Stalls_Percent_6_Bucket_4: 19340
Non-critical_ROB_Stalls_Percent_6_Bucket_4: 1648
Critical_ROB_Stalls_Percent_6_Bucket_5: 9348
Non-critical_ROB_Stalls_Percent_6_Bucket_5: 939
Critical_ROB_Stalls_Percent_6_Bucket_6: 22812
Non-critical_ROB_Stalls_Percent_6_Bucket_6: 947
Critical_ROB_Stalls_Percent_7_Bucket_0: 1872317
Non-critical_ROB_Stalls_Percent_7_Bucket_0: 442277
Critical_ROB_Stalls_Percent_7_Bucket_1: 667498
Non-critical_ROB_Stalls_Percent_7_Bucket_1: 50341
Critical_ROB_Stalls_Percent_7_Bucket_2: 233426
Non-critical_ROB_Stalls_Percent_7_Bucket_2: 11149
Critical_ROB_Stalls_Percent_7_Bucket_3: 57052
Non-critical_ROB_Stalls_Percent_7_Bucket_3: 1881
Critical_ROB_Stalls_Percent_7_Bucket_4: 20001
Non-critical_ROB_Stalls_Percent_7_Bucket_4: 987
Critical_ROB_Stalls_Percent_7_Bucket_5: 9462
Non-critical_ROB_Stalls_Percent_7_Bucket_5: 825
Critical_ROB_Stalls_Percent_7_Bucket_6: 22847
Non-critical_ROB_Stalls_Percent_7_Bucket_6: 912
Critical_ROB_Stalls_Percent_8_Bucket_0: 2018768
Non-critical_ROB_Stalls_Percent_8_Bucket_0: 295826
Critical_ROB_Stalls_Percent_8_Bucket_1: 684213
Non-critical_ROB_Stalls_Percent_8_Bucket_1: 33626
Critical_ROB_Stalls_Percent_8_Bucket_2: 238417
Non-critical_ROB_Stalls_Percent_8_Bucket_2: 6158
Critical_ROB_Stalls_Percent_8_Bucket_3: 57234
Non-critical_ROB_Stalls_Percent_8_Bucket_3: 1699
Critical_ROB_Stalls_Percent_8_Bucket_4: 20242
Non-critical_ROB_Stalls_Percent_8_Bucket_4: 746
Critical_ROB_Stalls_Percent_8_Bucket_5: 9856
Non-critical_ROB_Stalls_Percent_8_Bucket_5: 431
Critical_ROB_Stalls_Percent_8_Bucket_6: 23409
Non-critical_ROB_Stalls_Percent_8_Bucket_6: 350
Average ROB occupancy Load Stall Begin: 39.2375
Average ROB occupancy Load Stall End: 47.5325
Min ROB occupancy Load Stall Begin: 1
Max ROB occupancy Load Stall Begin: 352
Min ROB occupancy Load Stall End: 1
Max ROB occupancy Load Stall End: 352
Average ROB occupancy Critical Load Stall Begin: -nan
Average ROB occupancy Critical Load Stall End: -nan
Min ROB occupancy Critical Load Stall Begin: 400
Max ROB occupancy Critical Load Stall Begin: 0
Min ROB occupancy Critical Load Stall End: 400
Max ROB occupancy Critical Load Stall End: 0
 ROB Load Stall Begin Bucket Count 0: 2552237
 ROB Load Stall End Bucket Count 0: 2314594
 ROB Critical Load Stall Begin Bucket Count 0: 0
 ROB Critical Load Stall End Bucket Count 0: 0
 ROB Load Stall Begin Bucket Count 1: 566565
 ROB Load Stall End Bucket Count 1: 717839
 ROB Critical Load Stall Begin Bucket Count 1: 0
 ROB Critical Load Stall End Bucket Count 1: 0
 ROB Load Stall Begin Bucket Count 2: 180835
 ROB Load Stall End Bucket Count 2: 244575
 ROB Critical Load Stall Begin Bucket Count 2: 0
 ROB Critical Load Stall End Bucket Count 2: 0
 ROB Load Stall Begin Bucket Count 3: 42378
 ROB Load Stall End Bucket Count 3: 58933
 ROB Critical Load Stall Begin Bucket Count 3: 0
 ROB Critical Load Stall End Bucket Count 3: 0
 ROB Load Stall Begin Bucket Count 4: 17008
 ROB Load Stall End Bucket Count 4: 20988
 ROB Critical Load Stall Begin Bucket Count 4: 0
 ROB Critical Load Stall End Bucket Count 4: 0
 ROB Load Stall Begin Bucket Count 5: 9290
 ROB Load Stall End Bucket Count 5: 10287
 ROB Critical Load Stall Begin Bucket Count 5: 0
 ROB Critical Load Stall End Bucket Count 5: 0
 ROB Load Stall Begin Bucket Count 6: 22662
 ROB Load Stall End Bucket Count 6: 23759
 ROB Critical Load Stall Begin Bucket Count 6: 0
 ROB Critical Load Stall End Bucket Count 6: 0
PIST Tag Read Accesses: 2356082
PIST Read Accesses: 1178041
PIST Tag Write Accesses: 2356082
PIST Write Accesses: 1178041
Criticality detector called times: 3233906
Max global_stall_cycles_count: 1975460
Threshold Modified: 1 times, factor: -1
Sturdy critical IP cache stats: 
 Unused entries: 0
CIC Tag Read Accesses: 0
CIC Read Accesses: 0
CIC Tag Write Accesses: 0
CIC Write Accesses: 0
Wobbly critical IP cache stats: 
 Unused entries: 125
CIC Tag Read Accesses: 84305118
CIC Read Accesses: 0
CIC Tag Write Accesses: 3
CIC Write Accesses: 0
ITLB TOTAL     ACCESS:    9904183  HIT:    9283673  MISS:     620510  HIT %:    93.7349  MISS %:    6.26513   MPKI: 12.4102
ITLB LOAD TRANSLATION ACCESS:    8070416  HIT:    7978845  MISS:      91571  HIT %:    98.8653  MISS %:    1.13465   MPKI: 1.83142
ITLB TRANSLATION FROM L1D PREFETCHER ACCESS:    1833767  HIT:    1304828  MISS:     528939  HIT %:    71.1556  MISS %:    28.8444   MPKI: 10.5788
ITLB PREFETCH  REQUESTED:          0  ISSUED:          0  USEFUL:     410343  USELESS:     118600
ITLB USEFUL LOAD PREFETCHES:     410343 PREFETCH ISSUED TO LOWER LEVEL:          0  ACCURACY: inf
ITLB TIMELY PREFETCHES:     410343 LATE PREFETCHES: 304 DROPPED PREFETCHES: 2946
ITLB PREFETCHES SAME FILL-ORIGIN LEVEL: 0 DIFFERENT FILL-ORIGIN LEVEL: 0
ITLB AVERAGE MISS LATENCY: 27513.7 cycles
ITLB RQ	ACCESS:   14556299	FORWARD:          0	MERGED:    4608609	TO_CACHE:    9947690

DTLB TOTAL     ACCESS:   11325904  HIT:   10861676  MISS:     464228  HIT %:    95.9012  MISS %:    4.09882   MPKI: 9.28456
DTLB LOAD TRANSLATION ACCESS:   11325904  HIT:   10861676  MISS:     464228  HIT %:    95.9012  MISS %:    4.09882   MPKI: 9.28456
DTLB PREFETCH  REQUESTED:          0  ISSUED:          0  USEFUL:          0  USELESS:          0
DTLB USEFUL LOAD PREFETCHES:          0 PREFETCH ISSUED TO LOWER LEVEL:          0  ACCURACY: -nan
DTLB TIMELY PREFETCHES:          0 LATE PREFETCHES: 0 DROPPED PREFETCHES: 0
DTLB PREFETCHES SAME FILL-ORIGIN LEVEL: 0 DIFFERENT FILL-ORIGIN LEVEL: 0
DTLB AVERAGE MISS LATENCY: 9.38773 cycles
DTLB RQ	ACCESS:   14774115	FORWARD:          0	MERGED:    3421416	TO_CACHE:   11352699

STLB TOTAL     ACCESS:    1114050  HIT:    1111055  MISS:       2995  HIT %:    99.7312  MISS %:   0.268839   MPKI: 0.0599
STLB LOAD TRANSLATION ACCESS:     555495  HIT:     552752  MISS:       2743  HIT %:    99.5062  MISS %:   0.493794   MPKI: 0.05486
STLB TRANSLATION FROM L1D PREFETCHER ACCESS:     558555  HIT:     558303  MISS:        252  HIT %:    99.9549  MISS %:  0.0451164   MPKI: 0.00504
STLB PREFETCH  REQUESTED:          0  ISSUED:          0  USEFUL:        193  USELESS:         57
STLB USEFUL LOAD PREFETCHES:        193 PREFETCH ISSUED TO LOWER LEVEL:          0  ACCURACY: inf
STLB TIMELY PREFETCHES:        193 LATE PREFETCHES: 0 DROPPED PREFETCHES: 2946
STLB PREFETCHES SAME FILL-ORIGIN LEVEL: 0 DIFFERENT FILL-ORIGIN LEVEL: 0
STLB AVERAGE MISS LATENCY: 64.7432 cycles
STLB RQ	ACCESS:    1124864	FORWARD:          0	MERGED:       7868	TO_CACHE:    1116996

STLB Hit, L1D data hit: 0
STLB Hit, L2C data hit: 0
STLB Hit, LLC data hit: 0
STLB Hit, LLC data miss: 0
STLB STLB hints to L2: 0
L1D TOTAL     ACCESS:   14306640  HIT:   13310180  MISS:     996460  HIT %:     93.035  MISS %:    6.96502   MPKI: 19.9292
L1D LOAD      ACCESS:    8032456  HIT:    7327501  MISS:     704955  HIT %:    91.2237  MISS %:    8.77633   MPKI: 14.0991
L1D RFO       ACCESS:    6243642  HIT:    5962942  MISS:     280700  HIT %:    95.5042  MISS %:    4.49577   MPKI: 5.614
L1D PREFETCH  ACCESS:      30542  HIT:      19737  MISS:      10805  HIT %:    64.6225  MISS %:    35.3775   MPKI: 0.2161
L1D PREFETCH  REQUESTED:      74372  ISSUED:      74372  USEFUL:       6283  USELESS:       4578
L1D USEFUL LOAD PREFETCHES:       6283 PREFETCH ISSUED TO LOWER LEVEL:      14877  ACCURACY: 42.233
L1D TIMELY PREFETCHES:       6283 LATE PREFETCHES: 4057 DROPPED PREFETCHES: 0
L1D PREFETCHES SAME FILL-ORIGIN LEVEL: 14877 DIFFERENT FILL-ORIGIN LEVEL: 0
L1D AVERAGE MISS LATENCY: 162568 cycles
L1D RQ	ACCESS:   11544846	FORWARD:          0	MERGED:    3346867	TO_CACHE:    8069631
L1D WQ	ACCESS:    6771059	FORWARD:     128360	MERGED:      66575	TO_CACHE:    6704484
L1D PQ	ACCESS:      37192	FORWARD:          0	MERGED:          0	TO_CACHE:      37180

L1D UNIQUE REGIONS ACCESSED: 0
L1D REGIONS CONFLICTS: 0
L1D Cross Page Prefetch Requests: 0
L1D Same Page Prefetch Requests: 520498
L1D ROI Sum of L1D PQ occupancy: 580910
L1D PREFETCHES PUSHED FROM L2C: 0
L1I TOTAL     ACCESS:   14413397  HIT:   10627411  MISS:    3785986  HIT %:    73.7329  MISS %:    26.2671   MPKI: 75.7197
L1I LOAD      ACCESS:    9398063  HIT:    9124640  MISS:     273423  HIT %:    97.0906  MISS %:    2.90935   MPKI: 5.46846
L1I PREFETCH  ACCESS:    5015334  HIT:    1502771  MISS:    3512563  HIT %:    29.9635  MISS %:    70.0365   MPKI: 70.2513
L1I PREFETCH  REQUESTED:    5268995  ISSUED:    5254853  USEFUL:    2351769  USELESS:    1160799
L1I USEFUL LOAD PREFETCHES:    2351769 PREFETCH ISSUED TO LOWER LEVEL:    3541411  ACCURACY: 66.4077
L1I TIMELY PREFETCHES:    2351769 LATE PREFETCHES: 28848 DROPPED PREFETCHES: 7746
L1I PREFETCHES SAME FILL-ORIGIN LEVEL: 3541411 DIFFERENT FILL-ORIGIN LEVEL: 0
L1I AVERAGE MISS LATENCY: 409209 cycles
L1I RQ	ACCESS:   13467945	FORWARD:          0	MERGED:    4046241	TO_CACHE:    9421704
L1I PQ	ACCESS:    5254853	FORWARD:          0	MERGED:     120258	TO_CACHE:    5134595

BTB TOTAL     ACCESS:    6210935  HIT:    4468586  MISS:    1742349  HIT %:    71.9471  MISS %:    28.0529   MPKI: 34.847
BTB BRANCH_DIRECT_JUMP	ACCESS:     566815  HIT:     417590  MISS:     149225
BTB BRANCH_INDIRECT	ACCESS:     197171  HIT:     163808  MISS:      33363
BTB BRANCH_CONDITIONAL	ACCESS:    3373174  HIT:    2911628  MISS:     461546
BTB BRANCH_DIRECT_CALL	ACCESS:     876399  HIT:     531835  MISS:     344564
BTB BRANCH_INDIRECT_CALL	ACCESS:     160491  HIT:      90228  MISS:      70263
BTB BRANCH_RETURN	ACCESS:    1036885  HIT:     353497  MISS:     683388
BTB BRANCH_OTHER ACCESS:          0  HIT:          0  MISS:          0

L2C TOTAL     ACCESS:    5259020  HIT:    4690933  MISS:     568087  HIT %:    89.1979  MISS %:    10.8021   MPKI: 11.3617
L2C LOAD      ACCESS:     945453  HIT:     769681  MISS:     175772  HIT %:    81.4087  MISS %:    18.5913   MPKI: 3.51544
L2C DATA LOAD MPKI: 2.86618
L2C INSTRUCTION LOAD MPKI: 0.64926
L2C RFO       ACCESS:     280682  HIT:     203089  MISS:      77593  HIT %:    72.3555  MISS %:    27.6445   MPKI: 1.55186
L2C PREFETCH  ACCESS:    3556287  HIT:    3272856  MISS:     283431  HIT %:    92.0301  MISS %:    7.96986   MPKI: 5.66862
L2C DATA PREFETCH MPKI: 0.2215
L2C INSTRUCTION PREFETCH MPKI: 5.44712
L2C WRITEBACK ACCESS:     468110  HIT:     438972  MISS:      29138  HIT %:    93.7754  MISS %:    6.22461   MPKI: 0.58276
L2C LOAD TRANSLATION ACCESS:       3013  HIT:       1042  MISS:       1971  HIT %:    34.5835  MISS %:    65.4165   MPKI: 0.03942
L2C TRANSLATION FROM L1D PREFETCHER ACCESS:       5475  HIT:       5293  MISS:        182  HIT %:    96.6758  MISS %:     3.3242   MPKI: 0.00364
L2C PREFETCH  REQUESTED:          0  ISSUED:          0  USEFUL:       8248  USELESS:     275977
L2C USEFUL LOAD PREFETCHES:       8248 PREFETCH ISSUED TO LOWER LEVEL:     283431  ACCURACY: 2.91006
L2C TIMELY PREFETCHES:       8248 LATE PREFETCHES: 0 DROPPED PREFETCHES: 0
L2C PREFETCHES SAME FILL-ORIGIN LEVEL: 0 DIFFERENT FILL-ORIGIN LEVEL: 0
L2C AVERAGE MISS LATENCY: 40.685 cycles
L2C RQ	ACCESS:    1234646	FORWARD:          0	MERGED:          0	TO_CACHE:    1234623
L2C WQ	ACCESS:     468110	FORWARD:         24	MERGED:          0	TO_CACHE:     468110
L2C PQ	ACCESS:    3556288	FORWARD:          0	MERGED:          0	TO_CACHE:    3556287

L2C Instructions Evicting Data 133353
L2C Translations Evicting Data 1298
L2C Data Evicting Data 114401
L2C Instructions Evicting Instructions 170630
L2C Translations Evicting Instructions 826
L2C Data Evicting Instructions 116322
L2C Instructions Evicting Translations 836
L2C Translations Evicting Translations 29
L2C Data Evicting Translations 1254
L2C Dense regions hint from L2: 0
PSCL5 TOTAL     ACCESS:       5941  HIT:       5941  MISS:          0  HIT %:        100  MISS %:          0   MPKI: 0
PSCL5 LOAD TRANSLATION ACCESS:       2743  HIT:       2743  MISS:          0  HIT %:        100  MISS %:          0   MPKI: 0
PSCL5 TRANSLATION FROM L1D PREFETCHER ACCESS:       3198  HIT:       3198  MISS:          0  HIT %:        100  MISS %:          0   MPKI: 0
PSCL5 PREFETCH  REQUESTED:          0  ISSUED:          0  USEFUL:          0  USELESS:          0
PSCL5 USEFUL LOAD PREFETCHES:          0 PREFETCH ISSUED TO LOWER LEVEL:          0  ACCURACY: -nan
PSCL5 TIMELY PREFETCHES:          0 LATE PREFETCHES: 0 DROPPED PREFETCHES: 0
PSCL5 PREFETCHES SAME FILL-ORIGIN LEVEL: 0 DIFFERENT FILL-ORIGIN LEVEL: 0

PSCL4 TOTAL     ACCESS:       5847  HIT:       5841  MISS:          6  HIT %:    99.8974  MISS %:   0.102617   MPKI: 0.00012
PSCL4 LOAD TRANSLATION ACCESS:       2652  HIT:       2646  MISS:          6  HIT %:    99.7738  MISS %:   0.226244   MPKI: 0.00012
PSCL4 TRANSLATION FROM L1D PREFETCHER ACCESS:       3195  HIT:       3195  MISS:          0  HIT %:        100  MISS %:          0   MPKI: 0
PSCL4 PREFETCH  REQUESTED:          0  ISSUED:          0  USEFUL:          0  USELESS:          0
PSCL4 USEFUL LOAD PREFETCHES:          0 PREFETCH ISSUED TO LOWER LEVEL:          0  ACCURACY: -nan
PSCL4 TIMELY PREFETCHES:          0 LATE PREFETCHES: 0 DROPPED PREFETCHES: 0
PSCL4 PREFETCHES SAME FILL-ORIGIN LEVEL: 0 DIFFERENT FILL-ORIGIN LEVEL: 0

PSCL3 TOTAL     ACCESS:       5937  HIT:       5931  MISS:          6  HIT %:    99.8989  MISS %:   0.101061   MPKI: 0.00012
PSCL3 LOAD TRANSLATION ACCESS:       2742  HIT:       2736  MISS:          6  HIT %:    99.7812  MISS %:   0.218818   MPKI: 0.00012
PSCL3 TRANSLATION FROM L1D PREFETCHER ACCESS:       3195  HIT:       3195  MISS:          0  HIT %:        100  MISS %:          0   MPKI: 0
PSCL3 PREFETCH  REQUESTED:          0  ISSUED:          0  USEFUL:          0  USELESS:          0
PSCL3 USEFUL LOAD PREFETCHES:          0 PREFETCH ISSUED TO LOWER LEVEL:          0  ACCURACY: -nan
PSCL3 TIMELY PREFETCHES:          0 LATE PREFETCHES: 0 DROPPED PREFETCHES: 0
PSCL3 PREFETCHES SAME FILL-ORIGIN LEVEL: 0 DIFFERENT FILL-ORIGIN LEVEL: 0

PSCL2 TOTAL     ACCESS:       3704  HIT:       3409  MISS:        295  HIT %:    92.0356  MISS %:    7.96436   MPKI: 0.0059
PSCL2 LOAD TRANSLATION ACCESS:       2777  HIT:       2482  MISS:        295  HIT %:     89.377  MISS %:     10.623   MPKI: 0.0059
PSCL2 TRANSLATION FROM L1D PREFETCHER ACCESS:        927  HIT:        927  MISS:          0  HIT %:        100  MISS %:          0   MPKI: 0
PSCL2 PREFETCH  REQUESTED:          0  ISSUED:          0  USEFUL:          0  USELESS:          0
PSCL2 USEFUL LOAD PREFETCHES:          0 PREFETCH ISSUED TO LOWER LEVEL:          0  ACCURACY: -nan
PSCL2 TIMELY PREFETCHES:          0 LATE PREFETCHES: 0 DROPPED PREFETCHES: 0
PSCL2 PREFETCHES SAME FILL-ORIGIN LEVEL: 0 DIFFERENT FILL-ORIGIN LEVEL: 0

LLC TOTAL     ACCESS:     648397  HIT:     608167  MISS:      40230  HIT %:    93.7955  MISS %:    6.20453   MPKI: 0.8046
LLC LOAD      ACCESS:     175770  HIT:     162926  MISS:      12844  HIT %:    92.6927  MISS %:    7.30728   MPKI: 0.25688
LLC RFO       ACCESS:      77591  HIT:      55258  MISS:      22333  HIT %:     71.217  MISS %:     28.783   MPKI: 0.44666
LLC PREFETCH  ACCESS:     283430  HIT:     279004  MISS:       4426  HIT %:    98.4384  MISS %:    1.56158   MPKI: 0.08852
LLC WRITEBACK ACCESS:     109453  HIT:     109026  MISS:        427  HIT %:    99.6099  MISS %:   0.390122   MPKI: 0.00854
LLC LOAD TRANSLATION ACCESS:       1971  HIT:       1787  MISS:        184  HIT %:    90.6646  MISS %:    9.33536   MPKI: 0.00368
LLC TRANSLATION FROM L1D PREFETCHER ACCESS:        182  HIT:        166  MISS:         16  HIT %:    91.2088  MISS %:    8.79121   MPKI: 0.00032
LLC PREFETCH  REQUESTED:          0  ISSUED:          0  USEFUL:        946  USELESS:       8334
LLC USEFUL LOAD PREFETCHES:        946 PREFETCH ISSUED TO LOWER LEVEL:       4426  ACCURACY: 21.3737
LLC TIMELY PREFETCHES:        946 LATE PREFETCHES: 0 DROPPED PREFETCHES: 0
LLC PREFETCHES SAME FILL-ORIGIN LEVEL: 0 DIFFERENT FILL-ORIGIN LEVEL: 0
LLC AVERAGE MISS LATENCY: 171.747 cycles
LLC RQ	ACCESS:     255518	FORWARD:          0	MERGED:          0	TO_CACHE:     255514
LLC WQ	ACCESS:     109453	FORWARD:          5	MERGED:          0	TO_CACHE:     109453
LLC PQ	ACCESS:     283431	FORWARD:          0	MERGED:          0	TO_CACHE:     283430

LLC Dense regions hint to LLC: 0

RAW hits: 925225
Loads Generated: 12470071
Loads sent to L1D: 11544846
Stores Generated: 6771037
Stores sent to L1D: 6771059
Major fault: 0 Minor fault: 2466
Allocated PAGES: 2466
I-Shadow cache 408 bytes
Touched + WorthPF tables 6144 bytes 
MMA filter 174 bytes 
FNL filter 272 bytes 
TOTAL PREFETCHER STORAGE SIZE: 25174 bytes
CPU 0 L1I next line prefetcher final stats

stream: 
stream:times selected: 871480
stream:pref_filled: 80367
stream:pref_useful: 27906
stream:pref_late: 5581
stream:misses: 4567
stream:misses_by_poll: 0

CS: 
CS:times selected: 137746
CS:pref_filled: 54763
CS:pref_useful: 40392
CS:pref_late: 4356
CS:misses: 11678
CS:misses_by_poll: 69

CPLX: 
CPLX:times selected: 732686
CPLX:pref_filled: 31358
CPLX:pref_useful: 20452
CPLX:pref_late: 1685
CPLX:misses: 55389
CPLX:misses_by_poll: 4

NL_L1: 
NL:times selected: 6074
NL:pref_filled: 299
NL:pref_useful: 74
NL:pref_late: 13
NL:misses: 250
NL:misses_by_poll: 0

total selections: 1747986
total_filled: 10805
total_useful: 6283
total_late: 12677
total_polluted: 73
total_misses_after_warmup: 30898
conflicts: 121677
Degree Incremented Times: 188
Degree Decremented Times: 52456

L1 IP Table Write Accesses: 381818
L1 IP Table Read Accesses: 260141
L1 RST Write Accesses: 99732
L1 RST Read Accesses: 199464
L1 CSPT Write Accesses: 99732
L1 CSPT Read Accesses: 177677
L1 RR Filter Tag Write Accesses: 37192
L1 RR Filter Tag Read Accesses: 4685914
L1 IP Table Tag Write Accesses: 512845
L1 IP Table Tag Read Accesses: 512845
L1 RST Tag Write Accesses: 0
L1 RST Tag Read Accesses: 823898
L1 RR Filter Write Accesses: 0
L1 RR Filter Read Accesses: 172375
test: 102916

DRAM Statistics
 CHANNEL 0
 RQ ROW_BUFFER_HIT:      14906  ROW_BUFFER_MISS:      24887
 DBUS_CONGESTED:          1
 WQ ROW_BUFFER_HIT:       2355  ROW_BUFFER_MISS:      20019  FULL:          0

 AVG_CONGESTED_CYCLE: 8
 All warmup complete: 2
Channel 0 Bank busy for read cycles: 0
Channel 0 Bank busy for write cycles: 0
Channel 0
Rank 0
0banks busy for read cycles: 75249922
0banks busy for write cycles: 4570
1banks busy for read cycles: 1761217
1banks busy for write cycles: 629305
2banks busy for read cycles: 222640
2banks busy for write cycles: 206495
3banks busy for read cycles: 79568
3banks busy for write cycles: 133120
4banks busy for read cycles: 46378
4banks busy for write cycles: 109580
5banks busy for read cycles: 38853
5banks busy for write cycles: 100086
6banks busy for read cycles: 41440
6banks busy for write cycles: 98964
7banks busy for read cycles: 52980
7banks busy for write cycles: 109255
8banks busy for read cycles: 133508
8banks busy for write cycles: 199831

CPU 0 Branch Prediction Accuracy: 99.7477% MPKI: 0.46156 Average ROB Occupancy at Mispredict: 72.9432
Branch types
NOT_BRANCH: 40853605 81.7072%
BRANCH_DIRECT_JUMP: 566815 1.13363%
BRANCH_INDIRECT: 197171 0.394342%
BRANCH_CONDITIONAL: 6308406 12.6168%
BRANCH_DIRECT_CALL: 876399 1.7528%
BRANCH_INDIRECT_CALL: 160491 0.320982%
BRANCH_RETURN: 1036885 2.07377%
BRANCH_OTHER: 0 0%

DRAM PAGES: 1048576
Allocated PAGES: 2466
