
*** ChampSim Multicore Out-of-Order Simulator ***

Warmup Instructions: 50000000
Simulation Instructions: 50000000
Number of CPUs: 1
LLC sets: 2048
LLC ways: 16
Off-chip DRAM Size: 4096 MB Channels: 1 Width: 64-bit Data Rate: 6400 MT/s
CPU 0 runs ../IPC-traces//server_021.champsimtrace.xz
.xz
BTB has LRU replacement policy
ITLB has LRU replacement policy
DTLB has LRU replacement policy
STLB has LRU replacement policy
CPU 0 L1I next line prefetcher
L1I has LRU replacement policy
IP Table Entries: 64
L1D has LRU replacement policy
Initialize SRRIP state for L2C
Initialize DRRIP state for LLC
Heartbeat CPU 0 instructions: 10000000 cycles: 3180393 heartbeat IPC: 3.14427 cumulative IPC: 3.14427 (Simulation time: 0 hr 3 min 27 sec) 
Heartbeat CPU 0 instructions: 20000000 cycles: 6342500 heartbeat IPC: 3.16245 cumulative IPC: 3.15333 (Simulation time: 0 hr 6 min 16 sec) 
Heartbeat CPU 0 instructions: 30000000 cycles: 9541140 heartbeat IPC: 3.12633 cumulative IPC: 3.14428 (Simulation time: 0 hr 9 min 7 sec) 
Heartbeat CPU 0 instructions: 40000000 cycles: 12694736 heartbeat IPC: 3.17098 cumulative IPC: 3.15091 (Simulation time: 0 hr 11 min 31 sec) 
Heartbeat CPU 0 instructions: 50000000 cycles: 15876880 heartbeat IPC: 3.14254 cumulative IPC: 3.14923 (Simulation time: 0 hr 13 min 44 sec) 

Warmup complete CPU 0 instructions: 50000004 cycles: 15876881 (Simulation time: 0 hr 13 min 44 sec) 

Heartbeat CPU 0 instructions: 60000001 cycles: 34274863 heartbeat IPC: 0.543538 cumulative IPC: 0.543538 (Simulation time: 0 hr 17 min 17 sec) 
Heartbeat CPU 0 instructions: 70000000 cycles: 51887794 heartbeat IPC: 0.567765 cumulative IPC: 0.555387 (Simulation time: 0 hr 20 min 46 sec) 
Heartbeat CPU 0 instructions: 80000003 cycles: 69385000 heartbeat IPC: 0.57152 cumulative IPC: 0.560663 (Simulation time: 0 hr 24 min 14 sec) 
Heartbeat CPU 0 instructions: 90000000 cycles: 86935098 heartbeat IPC: 0.569797 cumulative IPC: 0.562919 (Simulation time: 0 hr 28 min 46 sec) 
Heartbeat CPU 0 instructions: 100000002 cycles: 104579753 heartbeat IPC: 0.566744 cumulative IPC: 0.56368 (Simulation time: 0 hr 33 min 36 sec) 
Finished CPU 0 instructions: 50000002 cycles: 88702873 cumulative IPC: 0.56368 (Simulation time: 0 hr 33 min 36 sec) 

ChampSim completed all CPUs

Region of Interest Statistics

CPU 0 cumulative IPC: 0.56368 instructions: 50000002 cycles: 88702873

CPU 0 Average Load ROB stall cycles: 2.75189e+07
CPU 0 Fraction of times ROB stalled by Loads: 45.3981
CPU 0 Percentage of Load stall cycles in Total stall cycles: 2.74913e+08
Issued all: 47180774
Issued LT all: 41887467
rob_not_full_when_issued_lt_all: 16831963
Issued LT one: 36039044
rob_not_full_when_issued_lt_one: 12794644
FVP critical_dynamic_instances_0: 2662519
FVP unique_critical_ips_0: 2744
 Total stall cycles: 71501751
 Total load stall cycles: 196567611670732
Unique Load IPs: 6062
CPU 0 NUM of IPS identified critical: 0
CPU 0 Num of Load IPs stalling ROB: 0
Threshold modification factor: 0
Trouble in retire width: -nan
MaC = Marked as critical.
lt_50_percent_before_Mac: 0
gt_90_percent_before_Mac: 0
gt_75_percent_before_Mac: 0
gt_50_percent_before_Mac: 0
stall_proportion_bin_same_before_after: 0
stall_proportion_bin_lower_before_after: 0
stall_proportion_bin_upper_before_after: 0
average_stall_proportion_before: -nan
average_stall_proportion_after: -nan
Critical IP stalls, total frequency: 0
Non-critical IP stalls, total frequency: 0
Total Freq all stalling IPs: 0
Critical_IP_Detector_Accuracy_70: 0.000364432
Critical_IP_Detector_Accuracy_80: 0.000364432
Critical_IP_Detector_Accuracy_90: 0.000364432
Critical_IP_Detector_Coverage_70: 1
Critical_IP_Detector_Coverage_80: 1
Critical_IP_Detector_Coverage_90: 1
stat_90_percent_critical_ip_stalls_freq: 293834
stat_90_percent_non_critical_ip_stalls_freq: 18446744073709257782
AVERAGE_ROB_Occupancy_90_Percent_Critical_IP_Stalls: 312.299
AVERAGE_ROB_Occupancy_90_Percent_Non_Critical_IP_Stalls: 2.89004e-11
Critical_IP_ROB_Stalls_Bucket_0: 0
Non-critical_IP_ROB_Stalls_Bucket_0: 504875
Critical_IP_ROB_Stalls_Bucket_1: 0
Non-critical_IP_ROB_Stalls_Bucket_1: 613962
Critical_IP_ROB_Stalls_Bucket_2: 0
Non-critical_IP_ROB_Stalls_Bucket_2: 434645
Critical_IP_ROB_Stalls_Bucket_3: 0
Non-critical_IP_ROB_Stalls_Bucket_3: 260988
Critical_IP_ROB_Stalls_Bucket_4: 0
Non-critical_IP_ROB_Stalls_Bucket_4: 169772
Critical_IP_ROB_Stalls_Bucket_5: 0
Non-critical_IP_ROB_Stalls_Bucket_5: 153680
Critical_IP_ROB_Stalls_Bucket_6: 0
Non-critical_IP_ROB_Stalls_Bucket_6: 1104867
0 => IPs accounting for >50 percent of stalls, 1 => 55, 2 => 60, 3 => 65 and so on till 90.
percent50: inf num IPs:  1
percent55: inf num IPs: 1
percent60: inf num IPs: 1
percent65: inf num IPs: 1
percent70: inf num IPs: 1
percent75: inf num IPs: 1
percent80: inf num IPs: 1
percent85: inf num IPs: 1
percent90: inf num IPs: 1
Critical_ROB_Stalls_Percent_0_Bucket_0: 685
Non-critical_ROB_Stalls_Percent_0_Bucket_0: 504190
Critical_ROB_Stalls_Percent_0_Bucket_1: 3542
Non-critical_ROB_Stalls_Percent_0_Bucket_1: 610420
Critical_ROB_Stalls_Percent_0_Bucket_2: 13646
Non-critical_ROB_Stalls_Percent_0_Bucket_2: 420999
Critical_ROB_Stalls_Percent_0_Bucket_3: 20619
Non-critical_ROB_Stalls_Percent_0_Bucket_3: 240369
Critical_ROB_Stalls_Percent_0_Bucket_4: 17632
Non-critical_ROB_Stalls_Percent_0_Bucket_4: 152140
Critical_ROB_Stalls_Percent_0_Bucket_5: 15666
Non-critical_ROB_Stalls_Percent_0_Bucket_5: 138014
Critical_ROB_Stalls_Percent_0_Bucket_6: 222044
Non-critical_ROB_Stalls_Percent_0_Bucket_6: 882823
Critical_ROB_Stalls_Percent_1_Bucket_0: 685
Non-critical_ROB_Stalls_Percent_1_Bucket_0: 504190
Critical_ROB_Stalls_Percent_1_Bucket_1: 3542
Non-critical_ROB_Stalls_Percent_1_Bucket_1: 610420
Critical_ROB_Stalls_Percent_1_Bucket_2: 13646
Non-critical_ROB_Stalls_Percent_1_Bucket_2: 420999
Critical_ROB_Stalls_Percent_1_Bucket_3: 20619
Non-critical_ROB_Stalls_Percent_1_Bucket_3: 240369
Critical_ROB_Stalls_Percent_1_Bucket_4: 17632
Non-critical_ROB_Stalls_Percent_1_Bucket_4: 152140
Critical_ROB_Stalls_Percent_1_Bucket_5: 15666
Non-critical_ROB_Stalls_Percent_1_Bucket_5: 138014
Critical_ROB_Stalls_Percent_1_Bucket_6: 222044
Non-critical_ROB_Stalls_Percent_1_Bucket_6: 882823
Critical_ROB_Stalls_Percent_2_Bucket_0: 685
Non-critical_ROB_Stalls_Percent_2_Bucket_0: 504190
Critical_ROB_Stalls_Percent_2_Bucket_1: 3542
Non-critical_ROB_Stalls_Percent_2_Bucket_1: 610420
Critical_ROB_Stalls_Percent_2_Bucket_2: 13646
Non-critical_ROB_Stalls_Percent_2_Bucket_2: 420999
Critical_ROB_Stalls_Percent_2_Bucket_3: 20619
Non-critical_ROB_Stalls_Percent_2_Bucket_3: 240369
Critical_ROB_Stalls_Percent_2_Bucket_4: 17632
Non-critical_ROB_Stalls_Percent_2_Bucket_4: 152140
Critical_ROB_Stalls_Percent_2_Bucket_5: 15666
Non-critical_ROB_Stalls_Percent_2_Bucket_5: 138014
Critical_ROB_Stalls_Percent_2_Bucket_6: 222044
Non-critical_ROB_Stalls_Percent_2_Bucket_6: 882823
Critical_ROB_Stalls_Percent_3_Bucket_0: 685
Non-critical_ROB_Stalls_Percent_3_Bucket_0: 504190
Critical_ROB_Stalls_Percent_3_Bucket_1: 3542
Non-critical_ROB_Stalls_Percent_3_Bucket_1: 610420
Critical_ROB_Stalls_Percent_3_Bucket_2: 13646
Non-critical_ROB_Stalls_Percent_3_Bucket_2: 420999
Critical_ROB_Stalls_Percent_3_Bucket_3: 20619
Non-critical_ROB_Stalls_Percent_3_Bucket_3: 240369
Critical_ROB_Stalls_Percent_3_Bucket_4: 17632
Non-critical_ROB_Stalls_Percent_3_Bucket_4: 152140
Critical_ROB_Stalls_Percent_3_Bucket_5: 15666
Non-critical_ROB_Stalls_Percent_3_Bucket_5: 138014
Critical_ROB_Stalls_Percent_3_Bucket_6: 222044
Non-critical_ROB_Stalls_Percent_3_Bucket_6: 882823
Critical_ROB_Stalls_Percent_4_Bucket_0: 685
Non-critical_ROB_Stalls_Percent_4_Bucket_0: 504190
Critical_ROB_Stalls_Percent_4_Bucket_1: 3542
Non-critical_ROB_Stalls_Percent_4_Bucket_1: 610420
Critical_ROB_Stalls_Percent_4_Bucket_2: 13646
Non-critical_ROB_Stalls_Percent_4_Bucket_2: 420999
Critical_ROB_Stalls_Percent_4_Bucket_3: 20619
Non-critical_ROB_Stalls_Percent_4_Bucket_3: 240369
Critical_ROB_Stalls_Percent_4_Bucket_4: 17632
Non-critical_ROB_Stalls_Percent_4_Bucket_4: 152140
Critical_ROB_Stalls_Percent_4_Bucket_5: 15666
Non-critical_ROB_Stalls_Percent_4_Bucket_5: 138014
Critical_ROB_Stalls_Percent_4_Bucket_6: 222044
Non-critical_ROB_Stalls_Percent_4_Bucket_6: 882823
Critical_ROB_Stalls_Percent_5_Bucket_0: 685
Non-critical_ROB_Stalls_Percent_5_Bucket_0: 504190
Critical_ROB_Stalls_Percent_5_Bucket_1: 3542
Non-critical_ROB_Stalls_Percent_5_Bucket_1: 610420
Critical_ROB_Stalls_Percent_5_Bucket_2: 13646
Non-critical_ROB_Stalls_Percent_5_Bucket_2: 420999
Critical_ROB_Stalls_Percent_5_Bucket_3: 20619
Non-critical_ROB_Stalls_Percent_5_Bucket_3: 240369
Critical_ROB_Stalls_Percent_5_Bucket_4: 17632
Non-critical_ROB_Stalls_Percent_5_Bucket_4: 152140
Critical_ROB_Stalls_Percent_5_Bucket_5: 15666
Non-critical_ROB_Stalls_Percent_5_Bucket_5: 138014
Critical_ROB_Stalls_Percent_5_Bucket_6: 222044
Non-critical_ROB_Stalls_Percent_5_Bucket_6: 882823
Critical_ROB_Stalls_Percent_6_Bucket_0: 685
Non-critical_ROB_Stalls_Percent_6_Bucket_0: 504190
Critical_ROB_Stalls_Percent_6_Bucket_1: 3542
Non-critical_ROB_Stalls_Percent_6_Bucket_1: 610420
Critical_ROB_Stalls_Percent_6_Bucket_2: 13646
Non-critical_ROB_Stalls_Percent_6_Bucket_2: 420999
Critical_ROB_Stalls_Percent_6_Bucket_3: 20619
Non-critical_ROB_Stalls_Percent_6_Bucket_3: 240369
Critical_ROB_Stalls_Percent_6_Bucket_4: 17632
Non-critical_ROB_Stalls_Percent_6_Bucket_4: 152140
Critical_ROB_Stalls_Percent_6_Bucket_5: 15666
Non-critical_ROB_Stalls_Percent_6_Bucket_5: 138014
Critical_ROB_Stalls_Percent_6_Bucket_6: 222044
Non-critical_ROB_Stalls_Percent_6_Bucket_6: 882823
Critical_ROB_Stalls_Percent_7_Bucket_0: 685
Non-critical_ROB_Stalls_Percent_7_Bucket_0: 504190
Critical_ROB_Stalls_Percent_7_Bucket_1: 3542
Non-critical_ROB_Stalls_Percent_7_Bucket_1: 610420
Critical_ROB_Stalls_Percent_7_Bucket_2: 13646
Non-critical_ROB_Stalls_Percent_7_Bucket_2: 420999
Critical_ROB_Stalls_Percent_7_Bucket_3: 20619
Non-critical_ROB_Stalls_Percent_7_Bucket_3: 240369
Critical_ROB_Stalls_Percent_7_Bucket_4: 17632
Non-critical_ROB_Stalls_Percent_7_Bucket_4: 152140
Critical_ROB_Stalls_Percent_7_Bucket_5: 15666
Non-critical_ROB_Stalls_Percent_7_Bucket_5: 138014
Critical_ROB_Stalls_Percent_7_Bucket_6: 222044
Non-critical_ROB_Stalls_Percent_7_Bucket_6: 882823
Critical_ROB_Stalls_Percent_8_Bucket_0: 685
Non-critical_ROB_Stalls_Percent_8_Bucket_0: 504190
Critical_ROB_Stalls_Percent_8_Bucket_1: 3542
Non-critical_ROB_Stalls_Percent_8_Bucket_1: 610420
Critical_ROB_Stalls_Percent_8_Bucket_2: 13646
Non-critical_ROB_Stalls_Percent_8_Bucket_2: 420999
Critical_ROB_Stalls_Percent_8_Bucket_3: 20619
Non-critical_ROB_Stalls_Percent_8_Bucket_3: 240369
Critical_ROB_Stalls_Percent_8_Bucket_4: 17632
Non-critical_ROB_Stalls_Percent_8_Bucket_4: 152140
Critical_ROB_Stalls_Percent_8_Bucket_5: 15666
Non-critical_ROB_Stalls_Percent_8_Bucket_5: 138014
Critical_ROB_Stalls_Percent_8_Bucket_6: 222044
Non-critical_ROB_Stalls_Percent_8_Bucket_6: 882823
Average ROB occupancy Load Stall Begin: 184.321
Average ROB occupancy Load Stall End: 192.699
Min ROB occupancy Load Stall Begin: 1
Max ROB occupancy Load Stall Begin: 352
Min ROB occupancy Load Stall End: 1
Max ROB occupancy Load Stall End: 352
Average ROB occupancy Critical Load Stall Begin: -nan
Average ROB occupancy Critical Load Stall End: -nan
Min ROB occupancy Critical Load Stall Begin: 400
Max ROB occupancy Critical Load Stall Begin: 0
Min ROB occupancy Critical Load Stall End: 400
Max ROB occupancy Critical Load Stall End: 0
 ROB Load Stall Begin Bucket Count 0: 711633
 ROB Load Stall End Bucket Count 0: 504875
 ROB Critical Load Stall Begin Bucket Count 0: 0
 ROB Critical Load Stall End Bucket Count 0: 0
 ROB Load Stall Begin Bucket Count 1: 541972
 ROB Load Stall End Bucket Count 1: 613962
 ROB Critical Load Stall Begin Bucket Count 1: 0
 ROB Critical Load Stall End Bucket Count 1: 0
 ROB Load Stall Begin Bucket Count 2: 378376
 ROB Load Stall End Bucket Count 2: 434645
 ROB Critical Load Stall Begin Bucket Count 2: 0
 ROB Critical Load Stall End Bucket Count 2: 0
 ROB Load Stall Begin Bucket Count 3: 222504
 ROB Load Stall End Bucket Count 3: 260988
 ROB Critical Load Stall Begin Bucket Count 3: 0
 ROB Critical Load Stall End Bucket Count 3: 0
 ROB Load Stall Begin Bucket Count 4: 157186
 ROB Load Stall End Bucket Count 4: 169772
 ROB Critical Load Stall Begin Bucket Count 4: 0
 ROB Critical Load Stall End Bucket Count 4: 0
 ROB Load Stall Begin Bucket Count 5: 154596
 ROB Load Stall End Bucket Count 5: 153680
 ROB Critical Load Stall Begin Bucket Count 5: 0
 ROB Critical Load Stall End Bucket Count 5: 0
 ROB Load Stall Begin Bucket Count 6: 1076522
 ROB Load Stall End Bucket Count 6: 1104867
 ROB Critical Load Stall Begin Bucket Count 6: 0
 ROB Critical Load Stall End Bucket Count 6: 0
PIST Tag Read Accesses: 0
PIST Read Accesses: 0
PIST Tag Write Accesses: 0
PIST Write Accesses: 0
Criticality detector called times: 0
Max global_stall_cycles_count: 0
Threshold Modified: 0 times, factor: 0
ITLB TOTAL     ACCESS:   10361263  HIT:    9866145  MISS:     495118  HIT %:    95.2215  MISS %:    4.77855   MPKI: 9.90236
ITLB LOAD TRANSLATION ACCESS:    8398913  HIT:    8388956  MISS:       9957  HIT %:    99.8814  MISS %:   0.118551   MPKI: 0.19914
ITLB TRANSLATION FROM L1D PREFETCHER ACCESS:    1962350  HIT:    1477189  MISS:     485161  HIT %:    75.2765  MISS %:    24.7235   MPKI: 9.70322
ITLB PREFETCH  REQUESTED:          0  ISSUED:          0  USEFUL:     434012  USELESS:      51152
ITLB USEFUL LOAD PREFETCHES:     434012 PREFETCH ISSUED TO LOWER LEVEL:          0  ACCURACY: inf
ITLB TIMELY PREFETCHES:     434012 LATE PREFETCHES: 179 DROPPED PREFETCHES: 0
ITLB PREFETCHES SAME FILL-ORIGIN LEVEL: 0 DIFFERENT FILL-ORIGIN LEVEL: 0
ITLB AVERAGE MISS LATENCY: 21828.8 cycles
ITLB RQ	ACCESS:   14928880	FORWARD:          0	MERGED:    4518643	TO_CACHE:   10410237

DTLB TOTAL     ACCESS:   10883842  HIT:   10479982  MISS:     403860  HIT %:    96.2894  MISS %:    3.71064   MPKI: 8.0772
DTLB LOAD TRANSLATION ACCESS:   10883842  HIT:   10479982  MISS:     403860  HIT %:    96.2894  MISS %:    3.71064   MPKI: 8.0772
DTLB PREFETCH  REQUESTED:          0  ISSUED:          0  USEFUL:          0  USELESS:          0
DTLB USEFUL LOAD PREFETCHES:          0 PREFETCH ISSUED TO LOWER LEVEL:          0  ACCURACY: -nan
DTLB TIMELY PREFETCHES:          0 LATE PREFETCHES: 0 DROPPED PREFETCHES: 0
DTLB PREFETCHES SAME FILL-ORIGIN LEVEL: 0 DIFFERENT FILL-ORIGIN LEVEL: 0
DTLB AVERAGE MISS LATENCY: 16.5214 cycles
DTLB RQ	ACCESS:   16206292	FORWARD:          0	MERGED:    5237308	TO_CACHE:   10968984

STLB TOTAL     ACCESS:    1492190  HIT:    1471851  MISS:      20339  HIT %:     98.637  MISS %:    1.36303   MPKI: 0.40678
STLB LOAD TRANSLATION ACCESS:     413638  HIT:     393700  MISS:      19938  HIT %:    95.1798  MISS %:    4.82016   MPKI: 0.39876
STLB TRANSLATION FROM L1D PREFETCHER ACCESS:    1078552  HIT:    1078151  MISS:        401  HIT %:    99.9628  MISS %:  0.0371795   MPKI: 0.00802
STLB PREFETCH  REQUESTED:          0  ISSUED:          0  USEFUL:        185  USELESS:        200
STLB USEFUL LOAD PREFETCHES:        185 PREFETCH ISSUED TO LOWER LEVEL:          0  ACCURACY: inf
STLB TIMELY PREFETCHES:        185 LATE PREFETCHES: 0 DROPPED PREFETCHES: 0
STLB PREFETCHES SAME FILL-ORIGIN LEVEL: 0 DIFFERENT FILL-ORIGIN LEVEL: 0
STLB AVERAGE MISS LATENCY: 155.892 cycles
STLB RQ	ACCESS:    1800585	FORWARD:          0	MERGED:     308395	TO_CACHE:    1492190

STLB Hit, L1D data hit: 0
STLB Hit, L2C data hit: 0
STLB Hit, LLC data hit: 0
STLB Hit, LLC data miss: 0
STLB STLB hints to L2: 0
L1D TOTAL     ACCESS:   14511860  HIT:   12475379  MISS:    2036481  HIT %:    85.9668  MISS %:    14.0332   MPKI: 40.7296
L1D LOAD      ACCESS:    7396839  HIT:    6874052  MISS:     522787  HIT %:    92.9323  MISS %:    7.06771   MPKI: 10.4557
L1D RFO       ACCESS:    6229970  HIT:    5241719  MISS:     988251  HIT %:    84.1371  MISS %:    15.8629   MPKI: 19.765
L1D PREFETCH  ACCESS:     885051  HIT:     359608  MISS:     525443  HIT %:    40.6313  MISS %:    59.3687   MPKI: 10.5089
L1D PREFETCH  REQUESTED:    1819255  ISSUED:    1803226  USEFUL:     331087  USELESS:     194313
L1D USEFUL LOAD PREFETCHES:     331087 PREFETCH ISSUED TO LOWER LEVEL:     539384  ACCURACY: 61.3824
L1D TIMELY PREFETCHES:     331087 LATE PREFETCHES: 6256 DROPPED PREFETCHES: 0
L1D PREFETCHES SAME FILL-ORIGIN LEVEL: 539384 DIFFERENT FILL-ORIGIN LEVEL: 0
L1D AVERAGE MISS LATENCY: 182715 cycles
L1D RQ	ACCESS:   11077982	FORWARD:          0	MERGED:    3520099	TO_CACHE:    7435856
L1D WQ	ACCESS:    8864293	FORWARD:     122039	MERGED:      93857	TO_CACHE:    8770436
L1D PQ	ACCESS:     901619	FORWARD:          0	MERGED:          0	TO_CACHE:     901607

L1D UNIQUE REGIONS ACCESSED: 0
L1D REGIONS CONFLICTS: 0
L1D Cross Page Prefetch Requests: 0
L1D Same Page Prefetch Requests: 1321612
L1D ROI Sum of L1D PQ occupancy: 18085976
L1D PREFETCHES PUSHED FROM L2C: 0
L1I TOTAL     ACCESS:   14848482  HIT:   11630768  MISS:    3217714  HIT %:    78.3297  MISS %:    21.6703   MPKI: 64.3543
L1I LOAD      ACCESS:    9803022  HIT:    9784407  MISS:      18615  HIT %:    99.8101  MISS %:    0.18989   MPKI: 0.3723
L1I PREFETCH  ACCESS:    5045460  HIT:    1846361  MISS:    3199099  HIT %:    36.5945  MISS %:    63.4055   MPKI: 63.982
L1I PREFETCH  REQUESTED:    5302089  ISSUED:    5296290  USEFUL:    2653472  USELESS:     545643
L1I USEFUL LOAD PREFETCHES:    2653472 PREFETCH ISSUED TO LOWER LEVEL:    3205628  ACCURACY: 82.7754
L1I TIMELY PREFETCHES:    2653472 LATE PREFETCHES: 6183 DROPPED PREFETCHES: 0
L1I PREFETCHES SAME FILL-ORIGIN LEVEL: 3205628 DIFFERENT FILL-ORIGIN LEVEL: 0
L1I AVERAGE MISS LATENCY: 119814 cycles
L1I RQ	ACCESS:   14097187	FORWARD:          0	MERGED:    4290650	TO_CACHE:    9806537
L1I PQ	ACCESS:    5296290	FORWARD:          0	MERGED:     173947	TO_CACHE:    5122343

BTB TOTAL     ACCESS:    5300075  HIT:    5041527  MISS:     258548  HIT %:    95.1218  MISS %:     4.8782   MPKI: 5.17096
BTB BRANCH_DIRECT_JUMP	ACCESS:     445212  HIT:     443383  MISS:       1829
BTB BRANCH_INDIRECT	ACCESS:      50481  HIT:      50386  MISS:         95
BTB BRANCH_CONDITIONAL	ACCESS:    2966952  HIT:    2961198  MISS:       5754
BTB BRANCH_DIRECT_CALL	ACCESS:     758223  HIT:     754416  MISS:       3807
BTB BRANCH_INDIRECT_CALL	ACCESS:     160492  HIT:     130806  MISS:      29686
BTB BRANCH_RETURN	ACCESS:     918715  HIT:     701338  MISS:     217377
BTB BRANCH_OTHER ACCESS:          0  HIT:          0  MISS:          0

L2C TOTAL     ACCESS:    7486741  HIT:    5469103  MISS:    2017638  HIT %:    73.0505  MISS %:    26.9495   MPKI: 40.3528
L2C LOAD      ACCESS:     528945  HIT:     195586  MISS:     333359  HIT %:    36.9766  MISS %:    63.0234   MPKI: 6.66718
L2C DATA LOAD MPKI: 6.5837
L2C INSTRUCTION LOAD MPKI: 0.08348
L2C RFO       ACCESS:     988238  HIT:      29889  MISS:     958349  HIT %:    3.02447  MISS %:    96.9755   MPKI: 19.167
L2C PREFETCH  ACCESS:    4776096  HIT:    4111375  MISS:     664721  HIT %:    86.0823  MISS %:    13.9177   MPKI: 13.2944
L2C DATA PREFETCH MPKI: 9.94426
L2C INSTRUCTION PREFETCH MPKI: 3.35016
L2C WRITEBACK ACCESS:    1171578  HIT:    1119733  MISS:      51845  HIT %:    95.5748  MISS %:    4.42523   MPKI: 1.0369
L2C LOAD TRANSLATION ACCESS:      21309  HIT:      12400  MISS:       8909  HIT %:    58.1914  MISS %:    41.8086   MPKI: 0.17818
L2C TRANSLATION FROM L1D PREFETCHER ACCESS:        575  HIT:        120  MISS:        455  HIT %:    20.8696  MISS %:    79.1304   MPKI: 0.0091
L2C PREFETCH  REQUESTED:    2003586  ISSUED:    1997435  USEFUL:      14332  USELESS:     651206
L2C USEFUL LOAD PREFETCHES:      14332 PREFETCH ISSUED TO LOWER LEVEL:     665698  ACCURACY: 2.15293
L2C TIMELY PREFETCHES:      14332 LATE PREFETCHES: 977 DROPPED PREFETCHES: 0
L2C PREFETCHES SAME FILL-ORIGIN LEVEL: 312516 DIFFERENT FILL-ORIGIN LEVEL: 0
L2C AVERAGE MISS LATENCY: 161.427 cycles
L2C RQ	ACCESS:    1539092	FORWARD:          0	MERGED:          0	TO_CACHE:    1539067
L2C WQ	ACCESS:    1171580	FORWARD:         28	MERGED:          0	TO_CACHE:    1171580
L2C PQ	ACCESS:    5734423	FORWARD:          0	MERGED:     633467	TO_CACHE:    5100953

L2C Instructions Evicting Data 156553
L2C Translations Evicting Data 8459
L2C Data Evicting Data 1624032
L2C Instructions Evicting Instructions 14332
L2C Translations Evicting Instructions 878
L2C Data Evicting Instructions 152355
L2C Instructions Evicting Translations 797
L2C Translations Evicting Translations 27
L2C Data Evicting Translations 8360
L2C Dense regions hint from L2: 0
PSCL5 TOTAL     ACCESS:      20339  HIT:      20339  MISS:          0  HIT %:        100  MISS %:          0   MPKI: 0
PSCL5 LOAD TRANSLATION ACCESS:      19938  HIT:      19938  MISS:          0  HIT %:        100  MISS %:          0   MPKI: 0
PSCL5 TRANSLATION FROM L1D PREFETCHER ACCESS:        401  HIT:        401  MISS:          0  HIT %:        100  MISS %:          0   MPKI: 0
PSCL5 PREFETCH  REQUESTED:          0  ISSUED:          0  USEFUL:          0  USELESS:          0
PSCL5 USEFUL LOAD PREFETCHES:          0 PREFETCH ISSUED TO LOWER LEVEL:          0  ACCURACY: -nan
PSCL5 TIMELY PREFETCHES:          0 LATE PREFETCHES: 0 DROPPED PREFETCHES: 0
PSCL5 PREFETCHES SAME FILL-ORIGIN LEVEL: 0 DIFFERENT FILL-ORIGIN LEVEL: 0

PSCL4 TOTAL     ACCESS:      19639  HIT:      19596  MISS:         43  HIT %:     99.781  MISS %:   0.218952   MPKI: 0.00086
PSCL4 LOAD TRANSLATION ACCESS:      19252  HIT:      19209  MISS:         43  HIT %:    99.7766  MISS %:   0.223353   MPKI: 0.00086
PSCL4 TRANSLATION FROM L1D PREFETCHER ACCESS:        387  HIT:        387  MISS:          0  HIT %:        100  MISS %:          0   MPKI: 0
PSCL4 PREFETCH  REQUESTED:          0  ISSUED:          0  USEFUL:          0  USELESS:          0
PSCL4 USEFUL LOAD PREFETCHES:          0 PREFETCH ISSUED TO LOWER LEVEL:          0  ACCURACY: -nan
PSCL4 TIMELY PREFETCHES:          0 LATE PREFETCHES: 0 DROPPED PREFETCHES: 0
PSCL4 PREFETCHES SAME FILL-ORIGIN LEVEL: 0 DIFFERENT FILL-ORIGIN LEVEL: 0

PSCL3 TOTAL     ACCESS:      19972  HIT:      19929  MISS:         43  HIT %:    99.7847  MISS %:   0.215301   MPKI: 0.00086
PSCL3 LOAD TRANSLATION ACCESS:      19585  HIT:      19542  MISS:         43  HIT %:    99.7804  MISS %:   0.219556   MPKI: 0.00086
PSCL3 TRANSLATION FROM L1D PREFETCHER ACCESS:        387  HIT:        387  MISS:          0  HIT %:        100  MISS %:          0   MPKI: 0
PSCL3 PREFETCH  REQUESTED:          0  ISSUED:          0  USEFUL:          0  USELESS:          0
PSCL3 USEFUL LOAD PREFETCHES:          0 PREFETCH ISSUED TO LOWER LEVEL:          0  ACCURACY: -nan
PSCL3 TIMELY PREFETCHES:          0 LATE PREFETCHES: 0 DROPPED PREFETCHES: 0
PSCL3 PREFETCHES SAME FILL-ORIGIN LEVEL: 0 DIFFERENT FILL-ORIGIN LEVEL: 0

PSCL2 TOTAL     ACCESS:      20339  HIT:      18856  MISS:       1483  HIT %:    92.7086  MISS %:    7.29141   MPKI: 0.02966
PSCL2 LOAD TRANSLATION ACCESS:      20088  HIT:      18605  MISS:       1483  HIT %:    92.6175  MISS %:    7.38252   MPKI: 0.02966
PSCL2 TRANSLATION FROM L1D PREFETCHER ACCESS:        251  HIT:        251  MISS:          0  HIT %:        100  MISS %:          0   MPKI: 0
PSCL2 PREFETCH  REQUESTED:          0  ISSUED:          0  USEFUL:          0  USELESS:          0
PSCL2 USEFUL LOAD PREFETCHES:          0 PREFETCH ISSUED TO LOWER LEVEL:          0  ACCURACY: -nan
PSCL2 TIMELY PREFETCHES:          0 LATE PREFETCHES: 0 DROPPED PREFETCHES: 0
PSCL2 PREFETCHES SAME FILL-ORIGIN LEVEL: 0 DIFFERENT FILL-ORIGIN LEVEL: 0

LLC TOTAL     ACCESS:    3065810  HIT:    1382990  MISS:    1682820  HIT %:    45.1101  MISS %:    54.8899   MPKI: 33.6564
LLC LOAD      ACCESS:     332387  HIT:     283412  MISS:      48975  HIT %:    85.2657  MISS %:    14.7343   MPKI: 0.9795
LLC RFO       ACCESS:     958342  HIT:     238431  MISS:     719911  HIT %:    24.8795  MISS %:    75.1205   MPKI: 14.3982
LLC PREFETCH  ACCESS:     665697  HIT:     308385  MISS:     357312  HIT %:    46.3251  MISS %:    53.6749   MPKI: 7.14624
LLC WRITEBACK ACCESS:    1100020  HIT:     549364  MISS:     550656  HIT %:    49.9413  MISS %:    50.0587   MPKI: 11.0131
LLC LOAD TRANSLATION ACCESS:       8909  HIT:       3245  MISS:       5664  HIT %:    36.4238  MISS %:    63.5762   MPKI: 0.11328
LLC TRANSLATION FROM L1D PREFETCHER ACCESS:        455  HIT:        153  MISS:        302  HIT %:    33.6264  MISS %:    66.3736   MPKI: 0.00604
LLC PREFETCH  REQUESTED:          0  ISSUED:          0  USEFUL:       2071  USELESS:     358982
LLC USEFUL LOAD PREFETCHES:       2071 PREFETCH ISSUED TO LOWER LEVEL:     357312  ACCURACY: 0.579605
LLC TIMELY PREFETCHES:       2071 LATE PREFETCHES: 0 DROPPED PREFETCHES: 0
LLC PREFETCHES SAME FILL-ORIGIN LEVEL: 0 DIFFERENT FILL-ORIGIN LEVEL: 0
LLC AVERAGE MISS LATENCY: 156.903 cycles
LLC RQ	ACCESS:    1300095	FORWARD:          0	MERGED:          0	TO_CACHE:    1300093
LLC WQ	ACCESS:    1100021	FORWARD:          3	MERGED:          0	TO_CACHE:    1100021
LLC PQ	ACCESS:     665698	FORWARD:          0	MERGED:          0	TO_CACHE:     665697

LLC Dense regions hint to LLC: 0

RAW hits: 1387630
Loads Generated: 12465612
Loads sent to L1D: 11077982
Stores Generated: 8864282
Stores sent to L1D: 8864293
Major fault: 0 Minor fault: 22424
Allocated PAGES: 22424
I-Shadow cache 408 bytes
Touched + WorthPF tables 6144 bytes 
MMA filter 174 bytes 
FNL filter 272 bytes 
TOTAL PREFETCHER STORAGE SIZE: 25174 bytes
CPU 0 L1I next line prefetcher final stats

stream: 
stream:times selected: 1914999
stream:pref_filled: 746057
stream:pref_useful: 551717
stream:pref_late: 6626
stream:misses: 6048
stream:misses_by_poll: 0

CS: 
CS:times selected: 1581260
CS:pref_filled: 3251
CS:pref_useful: 3113
CS:pref_late: 199
CS:misses: 8388
CS:misses_by_poll: 8

CPLX: 
CPLX:times selected: 332095
CPLX:pref_filled: 42556
CPLX:pref_useful: 21720
CPLX:pref_late: 198
CPLX:misses: 23482
CPLX:misses_by_poll: 54

NL_L1: 
NL:times selected: 189
NL:pref_filled: 83
NL:pref_useful: 27
NL:pref_late: 10
NL:misses: 88
NL:misses_by_poll: 0

total selections: 3828543
total_filled: 525443
total_useful: 331087
total_late: 7503
total_polluted: 62
total_misses_after_warmup: 71731
conflicts: 127818
Degree Incremented Times: 12352
Degree Decremented Times: 3637

L1 IP Table Write Accesses: 1848609
L1 IP Table Read Accesses: 1720791
L1 RST Write Accesses: 1535323
L1 RST Read Accesses: 3070646
L1 CSPT Write Accesses: 1535323
L1 CSPT Read Accesses: 1776714
L1 RR Filter Tag Write Accesses: 917648
L1 RR Filter Tag Read Accesses: 385127340
L1 IP Table Tag Write Accesses: 2024699
L1 IP Table Tag Read Accesses: 2024699
L1 RST Tag Write Accesses: 0
L1 RST Tag Read Accesses: 13870967
L1 RR Filter Write Accesses: 0
L1 RR Filter Read Accesses: 13187877
test: 86834
L2 IP Table Read Accesses: 1082413
L2 IP Table Write Accesses: 1259110
L2 IP Table Tag Read Accesses: 661207
L2 IP Table Tag Write Accesses: 661207

DRAM Statistics
 CHANNEL 0
 RQ ROW_BUFFER_HIT:     508250  ROW_BUFFER_MISS:     623801
 DBUS_CONGESTED:        682
 WQ ROW_BUFFER_HIT:     166126  ROW_BUFFER_MISS:     577796  FULL:      34673

 AVG_CONGESTED_CYCLE: 3
 All warmup complete: 2
Channel 0 Bank busy for read cycles: 0
Channel 0 Bank busy for write cycles: 0
Channel 0
Rank 0
0banks busy for read cycles: 26060980
0banks busy for write cycles: 50203
1banks busy for read cycles: 11328488
1banks busy for write cycles: 6931282
2banks busy for read cycles: 7741683
2banks busy for write cycles: 3056014
3banks busy for read cycles: 3720028
3banks busy for write cycles: 1639675
4banks busy for read cycles: 3361329
4banks busy for write cycles: 1184930
5banks busy for read cycles: 1352587
5banks busy for write cycles: 1063187
6banks busy for read cycles: 1357639
6banks busy for write cycles: 1115470
7banks busy for read cycles: 2082479
7banks busy for write cycles: 1868656
8banks busy for read cycles: 5061060
8banks busy for write cycles: 9727184

CPU 0 Branch Prediction Accuracy: 99.8303% MPKI: 0.27836 Average ROB Occupancy at Mispredict: 111.208
Branch types
NOT_BRANCH: 41798375 83.5967%
BRANCH_DIRECT_JUMP: 445212 0.890424%
BRANCH_INDIRECT: 50481 0.100962%
BRANCH_CONDITIONAL: 5868224 11.7364%
BRANCH_DIRECT_CALL: 758223 1.51645%
BRANCH_INDIRECT_CALL: 160492 0.320984%
BRANCH_RETURN: 918715 1.83743%
BRANCH_OTHER: 0 0%

DRAM PAGES: 1048576
Allocated PAGES: 22424
