Initialize SIGNATURE TABLE
ST_SET: 1
ST_WAY: 256
ST_TAG_BIT: 16
ST_TAG_MASK: ffff

Initialize PATTERN TABLE
PT_SET: 512
PT_WAY: 4
SIG_DELTA_BIT: 7
C_SIG_BIT: 4
C_DELTA_BIT: 4

Initialize PREFETCH FILTER
FILTER_SET: 1024

*** ChampSim Multicore Out-of-Order Simulator ***

Warmup Instructions: 50000000
Simulation Instructions: 50000000
Number of CPUs: 1
LLC sets: 2048
LLC ways: 16
Off-chip DRAM Size: 4096 MB Channels: 1 Width: 64-bit Data Rate: 6400 MT/s
CPU 0 runs ../IPC-traces//server_022.champsimtrace.xz
.xz
BTB has LRU replacement policy
ITLB has LRU replacement policy
DTLB has LRU replacement policy
STLB has LRU replacement policy
CPU 0 L1I next line prefetcher
L1I has LRU replacement policy
L1D has LRU replacement policy
Initialize SRRIP state for L2C
Initialize DRRIP state for LLC
Heartbeat CPU 0 instructions: 10000001 cycles: 3284174 heartbeat IPC: 3.04491 cumulative IPC: 3.04491 (Simulation time: 0 hr 5 min 36 sec) 
Heartbeat CPU 0 instructions: 20000000 cycles: 6576916 heartbeat IPC: 3.03698 cumulative IPC: 3.04094 (Simulation time: 0 hr 9 min 50 sec) 
Heartbeat CPU 0 instructions: 30000002 cycles: 9863745 heartbeat IPC: 3.04245 cumulative IPC: 3.04144 (Simulation time: 0 hr 14 min 2 sec) 
Heartbeat CPU 0 instructions: 40000003 cycles: 13152556 heartbeat IPC: 3.04061 cumulative IPC: 3.04123 (Simulation time: 0 hr 18 min 5 sec) 
Heartbeat CPU 0 instructions: 50000003 cycles: 16437718 heartbeat IPC: 3.04399 cumulative IPC: 3.04179 (Simulation time: 0 hr 20 min 59 sec) 

Warmup complete CPU 0 instructions: 50000003 cycles: 16437718 (Simulation time: 0 hr 20 min 59 sec) 

Heartbeat CPU 0 instructions: 60000000 cycles: 44337316 heartbeat IPC: 0.358428 cumulative IPC: 0.358428 (Simulation time: 0 hr 26 min 20 sec) 
Heartbeat CPU 0 instructions: 70000001 cycles: 72534412 heartbeat IPC: 0.354646 cumulative IPC: 0.356527 (Simulation time: 0 hr 31 min 45 sec) 
Heartbeat CPU 0 instructions: 80000000 cycles: 100352035 heartbeat IPC: 0.359484 cumulative IPC: 0.357507 (Simulation time: 0 hr 37 min 34 sec) 
Heartbeat CPU 0 instructions: 90000003 cycles: 128678212 heartbeat IPC: 0.35303 cumulative IPC: 0.356378 (Simulation time: 0 hr 45 min 30 sec) 
Heartbeat CPU 0 instructions: 100000000 cycles: 156697702 heartbeat IPC: 0.356894 cumulative IPC: 0.356481 (Simulation time: 0 hr 52 min 57 sec) 
Finished CPU 0 instructions: 50000001 cycles: 140259985 cumulative IPC: 0.356481 (Simulation time: 0 hr 52 min 57 sec) 

ChampSim completed all CPUs

Region of Interest Statistics

CPU 0 cumulative IPC: 0.356481 instructions: 50000001 cycles: 140259985

CPU 0 Average Load ROB stall cycles: 3.94983e+07
CPU 0 Fraction of times ROB stalled by Loads: 45.6848
CPU 0 Percentage of Load stall cycles in Total stall cycles: 2.30391e+08
Issued all: 85415400
Issued LT all: 80146612
rob_not_full_when_issued_lt_all: 16784371
Issued LT one: 74281925
rob_not_full_when_issued_lt_one: 12764482
 Total stall cycles: 122975734
 Total load stall cycles: 283324885435396
Unique Load IPs: 6167
CPU 0 NUM of IPS identified critical: 2
CPU 0 Num of Load IPs stalling ROB: 0
Threshold modification factor: 0
Trouble in retire width: -nan
MaC = Marked as critical.
lt_50_percent_before_Mac: 1
gt_90_percent_before_Mac: 0
gt_75_percent_before_Mac: 1
gt_50_percent_before_Mac: 0
stall_proportion_bin_same_before_after: 0
stall_proportion_bin_lower_before_after: 0
stall_proportion_bin_upper_before_after: 0
average_stall_proportion_before: 0.011462
average_stall_proportion_after: 0.00884339
Critical_IP_Detector_Accuracy_70: 0
Critical_IP_Detector_Accuracy_80: 0
Critical_IP_Detector_Accuracy_90: 0
Critical_IP_Detector_Coverage_70: 0
Critical_IP_Detector_Coverage_80: 0
Critical_IP_Detector_Coverage_90: 0
stat_90_percent_critical_ip_stalls_freq: 295118
stat_90_percent_non_critical_ip_stalls_freq: 18446744073709256498
AVERAGE_ROB_Occupancy_90_Percent_Critical_IP_Stalls: 315.401
AVERAGE_ROB_Occupancy_90_Percent_Non_Critical_IP_Stalls: 2.97036e-11
Critical_IP_ROB_Stalls_Bucket_0: 0
Non-critical_IP_ROB_Stalls_Bucket_0: 502489
Critical_IP_ROB_Stalls_Bucket_1: 46
Non-critical_IP_ROB_Stalls_Bucket_1: 619352
Critical_IP_ROB_Stalls_Bucket_2: 1
Non-critical_IP_ROB_Stalls_Bucket_2: 424033
Critical_IP_ROB_Stalls_Bucket_3: 1
Non-critical_IP_ROB_Stalls_Bucket_3: 254044
Critical_IP_ROB_Stalls_Bucket_4: 0
Non-critical_IP_ROB_Stalls_Bucket_4: 166828
Critical_IP_ROB_Stalls_Bucket_5: 1
Non-critical_IP_ROB_Stalls_Bucket_5: 144226
Critical_IP_ROB_Stalls_Bucket_6: 20
Non-critical_IP_ROB_Stalls_Bucket_6: 1165974
0 => IPs accounting for >50 percent of stalls, 1 => 55, 2 => 60, 3 => 65 and so on till 90.
percent50: inf num IPs:  1
percent55: inf num IPs: 1
percent60: inf num IPs: 1
percent65: inf num IPs: 1
percent70: inf num IPs: 1
percent75: inf num IPs: 1
percent80: inf num IPs: 1
percent85: inf num IPs: 1
percent90: inf num IPs: 1
Critical_ROB_Stalls_Percent_0_Bucket_0: 655
Non-critical_ROB_Stalls_Percent_0_Bucket_0: 501834
Critical_ROB_Stalls_Percent_0_Bucket_1: 3220
Non-critical_ROB_Stalls_Percent_0_Bucket_1: 616178
Critical_ROB_Stalls_Percent_0_Bucket_2: 12989
Non-critical_ROB_Stalls_Percent_0_Bucket_2: 411045
Critical_ROB_Stalls_Percent_0_Bucket_3: 18123
Non-critical_ROB_Stalls_Percent_0_Bucket_3: 235922
Critical_ROB_Stalls_Percent_0_Bucket_4: 17047
Non-critical_ROB_Stalls_Percent_0_Bucket_4: 149781
Critical_ROB_Stalls_Percent_0_Bucket_5: 14480
Non-critical_ROB_Stalls_Percent_0_Bucket_5: 129747
Critical_ROB_Stalls_Percent_0_Bucket_6: 228604
Non-critical_ROB_Stalls_Percent_0_Bucket_6: 937390
Critical_ROB_Stalls_Percent_1_Bucket_0: 655
Non-critical_ROB_Stalls_Percent_1_Bucket_0: 501834
Critical_ROB_Stalls_Percent_1_Bucket_1: 3220
Non-critical_ROB_Stalls_Percent_1_Bucket_1: 616178
Critical_ROB_Stalls_Percent_1_Bucket_2: 12989
Non-critical_ROB_Stalls_Percent_1_Bucket_2: 411045
Critical_ROB_Stalls_Percent_1_Bucket_3: 18123
Non-critical_ROB_Stalls_Percent_1_Bucket_3: 235922
Critical_ROB_Stalls_Percent_1_Bucket_4: 17047
Non-critical_ROB_Stalls_Percent_1_Bucket_4: 149781
Critical_ROB_Stalls_Percent_1_Bucket_5: 14480
Non-critical_ROB_Stalls_Percent_1_Bucket_5: 129747
Critical_ROB_Stalls_Percent_1_Bucket_6: 228604
Non-critical_ROB_Stalls_Percent_1_Bucket_6: 937390
Critical_ROB_Stalls_Percent_2_Bucket_0: 655
Non-critical_ROB_Stalls_Percent_2_Bucket_0: 501834
Critical_ROB_Stalls_Percent_2_Bucket_1: 3220
Non-critical_ROB_Stalls_Percent_2_Bucket_1: 616178
Critical_ROB_Stalls_Percent_2_Bucket_2: 12989
Non-critical_ROB_Stalls_Percent_2_Bucket_2: 411045
Critical_ROB_Stalls_Percent_2_Bucket_3: 18123
Non-critical_ROB_Stalls_Percent_2_Bucket_3: 235922
Critical_ROB_Stalls_Percent_2_Bucket_4: 17047
Non-critical_ROB_Stalls_Percent_2_Bucket_4: 149781
Critical_ROB_Stalls_Percent_2_Bucket_5: 14480
Non-critical_ROB_Stalls_Percent_2_Bucket_5: 129747
Critical_ROB_Stalls_Percent_2_Bucket_6: 228604
Non-critical_ROB_Stalls_Percent_2_Bucket_6: 937390
Critical_ROB_Stalls_Percent_3_Bucket_0: 655
Non-critical_ROB_Stalls_Percent_3_Bucket_0: 501834
Critical_ROB_Stalls_Percent_3_Bucket_1: 3220
Non-critical_ROB_Stalls_Percent_3_Bucket_1: 616178
Critical_ROB_Stalls_Percent_3_Bucket_2: 12989
Non-critical_ROB_Stalls_Percent_3_Bucket_2: 411045
Critical_ROB_Stalls_Percent_3_Bucket_3: 18123
Non-critical_ROB_Stalls_Percent_3_Bucket_3: 235922
Critical_ROB_Stalls_Percent_3_Bucket_4: 17047
Non-critical_ROB_Stalls_Percent_3_Bucket_4: 149781
Critical_ROB_Stalls_Percent_3_Bucket_5: 14480
Non-critical_ROB_Stalls_Percent_3_Bucket_5: 129747
Critical_ROB_Stalls_Percent_3_Bucket_6: 228604
Non-critical_ROB_Stalls_Percent_3_Bucket_6: 937390
Critical_ROB_Stalls_Percent_4_Bucket_0: 655
Non-critical_ROB_Stalls_Percent_4_Bucket_0: 501834
Critical_ROB_Stalls_Percent_4_Bucket_1: 3220
Non-critical_ROB_Stalls_Percent_4_Bucket_1: 616178
Critical_ROB_Stalls_Percent_4_Bucket_2: 12989
Non-critical_ROB_Stalls_Percent_4_Bucket_2: 411045
Critical_ROB_Stalls_Percent_4_Bucket_3: 18123
Non-critical_ROB_Stalls_Percent_4_Bucket_3: 235922
Critical_ROB_Stalls_Percent_4_Bucket_4: 17047
Non-critical_ROB_Stalls_Percent_4_Bucket_4: 149781
Critical_ROB_Stalls_Percent_4_Bucket_5: 14480
Non-critical_ROB_Stalls_Percent_4_Bucket_5: 129747
Critical_ROB_Stalls_Percent_4_Bucket_6: 228604
Non-critical_ROB_Stalls_Percent_4_Bucket_6: 937390
Critical_ROB_Stalls_Percent_5_Bucket_0: 655
Non-critical_ROB_Stalls_Percent_5_Bucket_0: 501834
Critical_ROB_Stalls_Percent_5_Bucket_1: 3220
Non-critical_ROB_Stalls_Percent_5_Bucket_1: 616178
Critical_ROB_Stalls_Percent_5_Bucket_2: 12989
Non-critical_ROB_Stalls_Percent_5_Bucket_2: 411045
Critical_ROB_Stalls_Percent_5_Bucket_3: 18123
Non-critical_ROB_Stalls_Percent_5_Bucket_3: 235922
Critical_ROB_Stalls_Percent_5_Bucket_4: 17047
Non-critical_ROB_Stalls_Percent_5_Bucket_4: 149781
Critical_ROB_Stalls_Percent_5_Bucket_5: 14480
Non-critical_ROB_Stalls_Percent_5_Bucket_5: 129747
Critical_ROB_Stalls_Percent_5_Bucket_6: 228604
Non-critical_ROB_Stalls_Percent_5_Bucket_6: 937390
Critical_ROB_Stalls_Percent_6_Bucket_0: 655
Non-critical_ROB_Stalls_Percent_6_Bucket_0: 501834
Critical_ROB_Stalls_Percent_6_Bucket_1: 3220
Non-critical_ROB_Stalls_Percent_6_Bucket_1: 616178
Critical_ROB_Stalls_Percent_6_Bucket_2: 12989
Non-critical_ROB_Stalls_Percent_6_Bucket_2: 411045
Critical_ROB_Stalls_Percent_6_Bucket_3: 18123
Non-critical_ROB_Stalls_Percent_6_Bucket_3: 235922
Critical_ROB_Stalls_Percent_6_Bucket_4: 17047
Non-critical_ROB_Stalls_Percent_6_Bucket_4: 149781
Critical_ROB_Stalls_Percent_6_Bucket_5: 14480
Non-critical_ROB_Stalls_Percent_6_Bucket_5: 129747
Critical_ROB_Stalls_Percent_6_Bucket_6: 228604
Non-critical_ROB_Stalls_Percent_6_Bucket_6: 937390
Critical_ROB_Stalls_Percent_7_Bucket_0: 655
Non-critical_ROB_Stalls_Percent_7_Bucket_0: 501834
Critical_ROB_Stalls_Percent_7_Bucket_1: 3220
Non-critical_ROB_Stalls_Percent_7_Bucket_1: 616178
Critical_ROB_Stalls_Percent_7_Bucket_2: 12989
Non-critical_ROB_Stalls_Percent_7_Bucket_2: 411045
Critical_ROB_Stalls_Percent_7_Bucket_3: 18123
Non-critical_ROB_Stalls_Percent_7_Bucket_3: 235922
Critical_ROB_Stalls_Percent_7_Bucket_4: 17047
Non-critical_ROB_Stalls_Percent_7_Bucket_4: 149781
Critical_ROB_Stalls_Percent_7_Bucket_5: 14480
Non-critical_ROB_Stalls_Percent_7_Bucket_5: 129747
Critical_ROB_Stalls_Percent_7_Bucket_6: 228604
Non-critical_ROB_Stalls_Percent_7_Bucket_6: 937390
Critical_ROB_Stalls_Percent_8_Bucket_0: 655
Non-critical_ROB_Stalls_Percent_8_Bucket_0: 501834
Critical_ROB_Stalls_Percent_8_Bucket_1: 3220
Non-critical_ROB_Stalls_Percent_8_Bucket_1: 616178
Critical_ROB_Stalls_Percent_8_Bucket_2: 12989
Non-critical_ROB_Stalls_Percent_8_Bucket_2: 411045
Critical_ROB_Stalls_Percent_8_Bucket_3: 18123
Non-critical_ROB_Stalls_Percent_8_Bucket_3: 235922
Critical_ROB_Stalls_Percent_8_Bucket_4: 17047
Non-critical_ROB_Stalls_Percent_8_Bucket_4: 149781
Critical_ROB_Stalls_Percent_8_Bucket_5: 14480
Non-critical_ROB_Stalls_Percent_8_Bucket_5: 129747
Critical_ROB_Stalls_Percent_8_Bucket_6: 228604
Non-critical_ROB_Stalls_Percent_8_Bucket_6: 937390
Average ROB occupancy Load Stall Begin: 187.377
Average ROB occupancy Load Stall End: 195.609
Min ROB occupancy Load Stall Begin: 1
Max ROB occupancy Load Stall Begin: 352
Min ROB occupancy Load Stall End: 1
Max ROB occupancy Load Stall End: 352
Average ROB occupancy Critical Load Stall Begin: 220.737
Average ROB occupancy Critical Load Stall End: 232.368
Min ROB occupancy Critical Load Stall Begin: 50
Max ROB occupancy Critical Load Stall Begin: 340
Min ROB occupancy Critical Load Stall End: 56
Max ROB occupancy Critical Load Stall End: 352
 ROB Load Stall Begin Bucket Count 0: 711492
 ROB Load Stall End Bucket Count 0: 502489
 ROB Critical Load Stall Begin Bucket Count 0: 0
 ROB Critical Load Stall End Bucket Count 0: 0
 ROB Load Stall Begin Bucket Count 1: 540529
 ROB Load Stall End Bucket Count 1: 619398
 ROB Critical Load Stall Begin Bucket Count 1: 6
 ROB Critical Load Stall End Bucket Count 1: 6
 ROB Load Stall Begin Bucket Count 2: 373878
 ROB Load Stall End Bucket Count 2: 424034
 ROB Critical Load Stall Begin Bucket Count 2: 1
 ROB Critical Load Stall End Bucket Count 2: 1
 ROB Load Stall Begin Bucket Count 3: 214817
 ROB Load Stall End Bucket Count 3: 254045
 ROB Critical Load Stall Begin Bucket Count 3: 1
 ROB Critical Load Stall End Bucket Count 3: 1
 ROB Load Stall Begin Bucket Count 4: 152048
 ROB Load Stall End Bucket Count 4: 166828
 ROB Critical Load Stall Begin Bucket Count 4: 0
 ROB Critical Load Stall End Bucket Count 4: 0
 ROB Load Stall Begin Bucket Count 5: 146253
 ROB Load Stall End Bucket Count 5: 144227
 ROB Critical Load Stall Begin Bucket Count 5: 2
 ROB Critical Load Stall End Bucket Count 5: 0
 ROB Load Stall Begin Bucket Count 6: 1137998
 ROB Load Stall End Bucket Count 6: 1165994
 ROB Critical Load Stall Begin Bucket Count 6: 9
 ROB Critical Load Stall End Bucket Count 6: 11
PIST Tag Read Accesses: 0
PIST Read Accesses: 0
PIST Tag Write Accesses: 0
PIST Write Accesses: 0
Criticality detector called times: 0
Max global_stall_cycles_count: 0
Threshold Modified: 0 times, factor: 0
Sturdy critical IP cache stats: 
 Unused entries: 0
CIC Tag Read Accesses: 0
CIC Read Accesses: 0
CIC Tag Write Accesses: 0
CIC Write Accesses: 0
Wobbly critical IP cache stats: 
 Unused entries: 2
CIC Tag Read Accesses: 159921211
CIC Read Accesses: 0
CIC Tag Write Accesses: 117058
CIC Write Accesses: 0
ITLB TOTAL     ACCESS:   10480547  HIT:    9995698  MISS:     484849  HIT %:    95.3738  MISS %:    4.62618   MPKI: 9.69698
ITLB LOAD TRANSLATION ACCESS:    8524826  HIT:    8516592  MISS:       8234  HIT %:    99.9034  MISS %:  0.0965885   MPKI: 0.16468
ITLB TRANSLATION FROM L1D PREFETCHER ACCESS:    1955721  HIT:    1479106  MISS:     476615  HIT %:    75.6297  MISS %:    24.3703   MPKI: 9.5323
ITLB PREFETCH  REQUESTED:          0  ISSUED:          0  USEFUL:     431510  USELESS:      45105
ITLB USEFUL LOAD PREFETCHES:     431510 PREFETCH ISSUED TO LOWER LEVEL:          0  ACCURACY: inf
ITLB TIMELY PREFETCHES:     431510 LATE PREFETCHES: 163 DROPPED PREFETCHES: 0
ITLB PREFETCHES SAME FILL-ORIGIN LEVEL: 0 DIFFERENT FILL-ORIGIN LEVEL: 0
ITLB AVERAGE MISS LATENCY: 27865 cycles
ITLB RQ	ACCESS:   15108068	FORWARD:          0	MERGED:    4576839	TO_CACHE:   10531229

DTLB TOTAL     ACCESS:   10893926  HIT:   10483648  MISS:     410278  HIT %:    96.2339  MISS %:    3.76612   MPKI: 8.20556
DTLB LOAD TRANSLATION ACCESS:   10893926  HIT:   10483648  MISS:     410278  HIT %:    96.2339  MISS %:    3.76612   MPKI: 8.20556
DTLB PREFETCH  REQUESTED:          0  ISSUED:          0  USEFUL:          0  USELESS:          0
DTLB USEFUL LOAD PREFETCHES:          0 PREFETCH ISSUED TO LOWER LEVEL:          0  ACCURACY: -nan
DTLB TIMELY PREFETCHES:          0 LATE PREFETCHES: 0 DROPPED PREFETCHES: 0
DTLB PREFETCHES SAME FILL-ORIGIN LEVEL: 0 DIFFERENT FILL-ORIGIN LEVEL: 0
DTLB AVERAGE MISS LATENCY: 17.0824 cycles
DTLB RQ	ACCESS:   16222692	FORWARD:          0	MERGED:    5247288	TO_CACHE:   10975404

STLB TOTAL     ACCESS:     895127  HIT:     875556  MISS:      19571  HIT %:    97.8136  MISS %:    2.18639   MPKI: 0.39142
STLB LOAD TRANSLATION ACCESS:     418349  HIT:     399141  MISS:      19208  HIT %:    95.4086  MISS %:    4.59138   MPKI: 0.38416
STLB TRANSLATION FROM L1D PREFETCHER ACCESS:     476778  HIT:     476415  MISS:        363  HIT %:    99.9239  MISS %:  0.0761361   MPKI: 0.00726
STLB PREFETCH  REQUESTED:          0  ISSUED:          0  USEFUL:        157  USELESS:        206
STLB USEFUL LOAD PREFETCHES:        157 PREFETCH ISSUED TO LOWER LEVEL:          0  ACCURACY: inf
STLB TIMELY PREFETCHES:        157 LATE PREFETCHES: 0 DROPPED PREFETCHES: 0
STLB PREFETCHES SAME FILL-ORIGIN LEVEL: 0 DIFFERENT FILL-ORIGIN LEVEL: 0
STLB AVERAGE MISS LATENCY: 176.665 cycles
STLB RQ	ACCESS:     895127	FORWARD:          0	MERGED:          0	TO_CACHE:     895127

STLB Hit, L1D data hit: 0
STLB Hit, L2C data hit: 0
STLB Hit, LLC data hit: 0
STLB Hit, LLC data miss: 0
STLB STLB hints to L2: 0
L1D TOTAL     ACCESS:   14128533  HIT:   12310355  MISS:    1818178  HIT %:    87.1312  MISS %:    12.8688   MPKI: 36.3636
L1D LOAD      ACCESS:    7390124  HIT:    6567627  MISS:     822497  HIT %:    88.8703  MISS %:    11.1297   MPKI: 16.4499
L1D RFO       ACCESS:    6738409  HIT:    5742728  MISS:     995681  HIT %:    85.2238  MISS %:    14.7762   MPKI: 19.9136
L1D PREFETCH  REQUESTED:          0  ISSUED:          0  USEFUL:          0  USELESS:          0
L1D USEFUL LOAD PREFETCHES:          0 PREFETCH ISSUED TO LOWER LEVEL:          0  ACCURACY: -nan
L1D TIMELY PREFETCHES:          0 LATE PREFETCHES: 0 DROPPED PREFETCHES: 0
L1D PREFETCHES SAME FILL-ORIGIN LEVEL: 0 DIFFERENT FILL-ORIGIN LEVEL: 0
L1D AVERAGE MISS LATENCY: 163.66 cycles
L1D RQ	ACCESS:   11068959	FORWARD:          0	MERGED:    3515974	TO_CACHE:    7429170
L1D WQ	ACCESS:    8887929	FORWARD:     123815	MERGED:      94407	TO_CACHE:    8793522

L1D UNIQUE REGIONS ACCESSED: 0
L1D REGIONS CONFLICTS: 0
L1D Cross Page Prefetch Requests: 0
L1D Same Page Prefetch Requests: 0
L1D ROI Sum of L1D PQ occupancy: 0
L1D PREFETCHES PUSHED FROM L2C: 0
L1I TOTAL     ACCESS:   15016379  HIT:   11790831  MISS:    3225548  HIT %:    78.5198  MISS %:    21.4802   MPKI: 64.511
L1I LOAD      ACCESS:    9946672  HIT:    9928730  MISS:      17942  HIT %:    99.8196  MISS %:   0.180382   MPKI: 0.35884
L1I PREFETCH  ACCESS:    5069707  HIT:    1862101  MISS:    3207606  HIT %:      36.73  MISS %:      63.27   MPKI: 64.1521
L1I PREFETCH  REQUESTED:    5324158  ISSUED:    5320395  USEFUL:    2664473  USELESS:     543136
L1I USEFUL LOAD PREFETCHES:    2664473 PREFETCH ISSUED TO LOWER LEVEL:    3213387  ACCURACY: 82.9179
L1I TIMELY PREFETCHES:    2664473 LATE PREFETCHES: 5779 DROPPED PREFETCHES: 0
L1I PREFETCHES SAME FILL-ORIGIN LEVEL: 3213387 DIFFERENT FILL-ORIGIN LEVEL: 0
L1I AVERAGE MISS LATENCY: 152465 cycles
L1I RQ	ACCESS:   14219481	FORWARD:          0	MERGED:    4269354	TO_CACHE:    9950127
L1I PQ	ACCESS:    5320395	FORWARD:          0	MERGED:     162454	TO_CACHE:    5157941

BTB TOTAL     ACCESS:    5297027  HIT:    5037183  MISS:     259844  HIT %:    95.0945  MISS %:    4.90547   MPKI: 5.19688
BTB BRANCH_DIRECT_JUMP	ACCESS:     445734  HIT:     443706  MISS:       2028
BTB BRANCH_INDIRECT	ACCESS:      48875  HIT:      48765  MISS:        110
BTB BRANCH_CONDITIONAL	ACCESS:    2967685  HIT:    2961525  MISS:       6160
BTB BRANCH_DIRECT_CALL	ACCESS:     758262  HIT:     754131  MISS:       4131
BTB BRANCH_INDIRECT_CALL	ACCESS:     159103  HIT:     129311  MISS:      29792
BTB BRANCH_RETURN	ACCESS:     917368  HIT:     699745  MISS:     217623
BTB BRANCH_OTHER ACCESS:          0  HIT:          0  MISS:          0

L2C TOTAL     ACCESS:    7044444  HIT:    5256788  MISS:    1787656  HIT %:    74.6232  MISS %:    25.3768   MPKI: 35.7531
L2C LOAD      ACCESS:     834651  HIT:     206508  MISS:     628143  HIT %:    24.7418  MISS %:    75.2582   MPKI: 12.5629
L2C DATA LOAD MPKI: 12.4887
L2C INSTRUCTION LOAD MPKI: 0.07418
L2C RFO       ACCESS:     995678  HIT:      43189  MISS:     952489  HIT %:    4.33765  MISS %:    95.6624   MPKI: 19.0498
L2C PREFETCH  ACCESS:    4020572  HIT:    3869938  MISS:     150634  HIT %:    96.2534  MISS %:    3.74658   MPKI: 3.01268
L2C DATA PREFETCH MPKI: 0.0931
L2C INSTRUCTION PREFETCH MPKI: 2.91958
L2C WRITEBACK ACCESS:    1171887  HIT:    1125126  MISS:      46761  HIT %:    96.0098  MISS %:    3.99023   MPKI: 0.93522
L2C LOAD TRANSLATION ACCESS:      21127  HIT:      11905  MISS:       9222  HIT %:    56.3497  MISS %:    43.6503   MPKI: 0.18444
L2C TRANSLATION FROM L1D PREFETCHER ACCESS:        529  HIT:        122  MISS:        407  HIT %:    23.0624  MISS %:    76.9376   MPKI: 0.00814
L2C PREFETCH  REQUESTED:    3468532  ISSUED:    3468531  USEFUL:       1732  USELESS:     149565
L2C USEFUL LOAD PREFETCHES:       1732 PREFETCH ISSUED TO LOWER LEVEL:     770124  ACCURACY: 0.224899
L2C TIMELY PREFETCHES:       1732 LATE PREFETCHES: 0 DROPPED PREFETCHES: 0
L2C PREFETCHES SAME FILL-ORIGIN LEVEL: 4724 DIFFERENT FILL-ORIGIN LEVEL: 619490
L2C AVERAGE MISS LATENCY: 155.961 cycles
L2C RQ	ACCESS:    1851997	FORWARD:          0	MERGED:          0	TO_CACHE:    1851985
L2C WQ	ACCESS:    1171887	FORWARD:         12	MERGED:          0	TO_CACHE:    1171887
L2C PQ	ACCESS:    6681918	FORWARD:          0	MERGED:    2033714	TO_CACHE:    4648204

L2C Instructions Evicting Data 138313
L2C Translations Evicting Data 8802
L2C Data Evicting Data 1438633
L2C Instructions Evicting Instructions 10626
L2C Translations Evicting Instructions 785
L2C Data Evicting Instructions 134298
L2C Instructions Evicting Translations 749
L2C Translations Evicting Translations 42
L2C Data Evicting Translations 8647
L2C Dense regions hint from L2: 0
PSCL5 TOTAL     ACCESS:      19571  HIT:      19571  MISS:          0  HIT %:        100  MISS %:          0   MPKI: 0
PSCL5 LOAD TRANSLATION ACCESS:      19208  HIT:      19208  MISS:          0  HIT %:        100  MISS %:          0   MPKI: 0
PSCL5 TRANSLATION FROM L1D PREFETCHER ACCESS:        363  HIT:        363  MISS:          0  HIT %:        100  MISS %:          0   MPKI: 0
PSCL5 PREFETCH  REQUESTED:          0  ISSUED:          0  USEFUL:          0  USELESS:          0
PSCL5 USEFUL LOAD PREFETCHES:          0 PREFETCH ISSUED TO LOWER LEVEL:          0  ACCURACY: -nan
PSCL5 TIMELY PREFETCHES:          0 LATE PREFETCHES: 0 DROPPED PREFETCHES: 0
PSCL5 PREFETCHES SAME FILL-ORIGIN LEVEL: 0 DIFFERENT FILL-ORIGIN LEVEL: 0

PSCL4 TOTAL     ACCESS:      17476  HIT:      17451  MISS:         25  HIT %:    99.8569  MISS %:   0.143053   MPKI: 0.0005
PSCL4 LOAD TRANSLATION ACCESS:      17123  HIT:      17098  MISS:         25  HIT %:     99.854  MISS %:   0.146002   MPKI: 0.0005
PSCL4 TRANSLATION FROM L1D PREFETCHER ACCESS:        353  HIT:        353  MISS:          0  HIT %:        100  MISS %:          0   MPKI: 0
PSCL4 PREFETCH  REQUESTED:          0  ISSUED:          0  USEFUL:          0  USELESS:          0
PSCL4 USEFUL LOAD PREFETCHES:          0 PREFETCH ISSUED TO LOWER LEVEL:          0  ACCURACY: -nan
PSCL4 TIMELY PREFETCHES:          0 LATE PREFETCHES: 0 DROPPED PREFETCHES: 0
PSCL4 PREFETCHES SAME FILL-ORIGIN LEVEL: 0 DIFFERENT FILL-ORIGIN LEVEL: 0

PSCL3 TOTAL     ACCESS:      19554  HIT:      19504  MISS:         50  HIT %:    99.7443  MISS %:   0.255702   MPKI: 0.001
PSCL3 LOAD TRANSLATION ACCESS:      19218  HIT:      19168  MISS:         50  HIT %:    99.7398  MISS %:   0.260173   MPKI: 0.001
PSCL3 TRANSLATION FROM L1D PREFETCHER ACCESS:        336  HIT:        336  MISS:          0  HIT %:        100  MISS %:          0   MPKI: 0
PSCL3 PREFETCH  REQUESTED:          0  ISSUED:          0  USEFUL:          0  USELESS:          0
PSCL3 USEFUL LOAD PREFETCHES:          0 PREFETCH ISSUED TO LOWER LEVEL:          0  ACCURACY: -nan
PSCL3 TIMELY PREFETCHES:          0 LATE PREFETCHES: 0 DROPPED PREFETCHES: 0
PSCL3 PREFETCHES SAME FILL-ORIGIN LEVEL: 0 DIFFERENT FILL-ORIGIN LEVEL: 0

PSCL2 TOTAL     ACCESS:      19571  HIT:      17532  MISS:       2039  HIT %:    89.5815  MISS %:    10.4185   MPKI: 0.04078
PSCL2 LOAD TRANSLATION ACCESS:      19350  HIT:      17311  MISS:       2039  HIT %:    89.4625  MISS %:    10.5375   MPKI: 0.04078
PSCL2 TRANSLATION FROM L1D PREFETCHER ACCESS:        221  HIT:        221  MISS:          0  HIT %:        100  MISS %:          0   MPKI: 0
PSCL2 PREFETCH  REQUESTED:          0  ISSUED:          0  USEFUL:          0  USELESS:          0
PSCL2 USEFUL LOAD PREFETCHES:          0 PREFETCH ISSUED TO LOWER LEVEL:          0  ACCURACY: -nan
PSCL2 TIMELY PREFETCHES:          0 LATE PREFETCHES: 0 DROPPED PREFETCHES: 0
PSCL2 PREFETCHES SAME FILL-ORIGIN LEVEL: 0 DIFFERENT FILL-ORIGIN LEVEL: 0

LLC TOTAL     ACCESS:    3445089  HIT:    1695176  MISS:    1749913  HIT %:    49.2056  MISS %:    50.7944   MPKI: 34.9983
LLC LOAD      ACCESS:     628143  HIT:     303349  MISS:     324794  HIT %:     48.293  MISS %:     51.707   MPKI: 6.49588
LLC RFO       ACCESS:     952488  HIT:     252243  MISS:     700245  HIT %:    26.4825  MISS %:    73.5175   MPKI: 14.0049
LLC PREFETCH  ACCESS:     766361  HIT:     732437  MISS:      33924  HIT %:    95.5734  MISS %:    4.42663   MPKI: 0.67848
LLC WRITEBACK ACCESS:    1088468  HIT:     405114  MISS:     683354  HIT %:    37.2187  MISS %:    62.7813   MPKI: 13.6671
LLC LOAD TRANSLATION ACCESS:       9222  HIT:       1894  MISS:       7328  HIT %:    20.5378  MISS %:    79.4622   MPKI: 0.14656
LLC TRANSLATION FROM L1D PREFETCHER ACCESS:        407  HIT:        139  MISS:        268  HIT %:    34.1523  MISS %:    65.8477   MPKI: 0.00536
LLC PREFETCH  REQUESTED:          0  ISSUED:          0  USEFUL:        246  USELESS:      35448
LLC USEFUL LOAD PREFETCHES:        246 PREFETCH ISSUED TO LOWER LEVEL:      33931  ACCURACY: 0.725001
LLC TIMELY PREFETCHES:        246 LATE PREFETCHES: 7 DROPPED PREFETCHES: 0
LLC PREFETCHES SAME FILL-ORIGIN LEVEL: 25048 DIFFERENT FILL-ORIGIN LEVEL: 0
LLC AVERAGE MISS LATENCY: 130.66 cycles
LLC RQ	ACCESS:    1590261	FORWARD:          0	MERGED:          0	TO_CACHE:    1590260
LLC WQ	ACCESS:    1088468	FORWARD:          1	MERGED:          0	TO_CACHE:    1088468
LLC PQ	ACCESS:     770124	FORWARD:          0	MERGED:       3569	TO_CACHE:     766555

LLC Dense regions hint to LLC: 0

RAW hits: 1387776
Loads Generated: 12456735
Loads sent to L1D: 11068959
Stores Generated: 8887926
Stores sent to L1D: 8887929
Major fault: 0 Minor fault: 23677
Allocated PAGES: 23677
I-Shadow cache 408 bytes
Touched + WorthPF tables 6144 bytes 
MMA filter 174 bytes 
FNL filter 272 bytes 
TOTAL PREFETCHER STORAGE SIZE: 25174 bytes
CPU 0 L1I next line prefetcher final stats
 All Calls: 7943833
 Critical Calls: 5329660
------------------
Depth Distribution
------------------
depth 0: 0
depth 1: 4850877
depth 2: 2052456
depth 3: 374592
depth 4: 17303
depth 5: 858
depth 6: 17
depth 7: 0
depth 8: 0
depth 9: 0
depth 10: 0
depth 11: 0
depth 12: 0
depth 13: 0
depth 14: 0
depth 15: 0
depth 16: 0
depth 17: 0
depth 18: 0
depth 19: 0
depth 20: 0
depth 21: 0
depth 22: 0
depth 23: 0
depth 24: 0
depth 25: 0
depth 26: 0
depth 27: 0
depth 28: 0
depth 29: 0
Total: 7296103
-----------------------------
-----------------------------
	Captured at Filter
-----------------------------
depth 0: 0
depth 1: 713023
depth 2: 439829
depth 3: 177538
depth 4: 30088
depth 5: 1527
depth 6: 10
depth 7: 1
depth 8: 0
depth 9: 0
depth 10: 0
depth 11: 0
depth 12: 0
depth 13: 0
depth 14: 0
depth 15: 0
depth 16: 0
depth 17: 0
depth 18: 0
depth 19: 0
depth 20: 0
depth 21: 0
depth 22: 0
depth 23: 0
depth 24: 0
depth 25: 0
depth 26: 0
depth 27: 0
depth 28: 0
depth 29: 0
-----------------------------
-----------------------------
		Lost at Page
-----------------------------
depth 0: 0
depth 1: 199949
depth 2: 64849
depth 3: 11802
depth 4: 591
depth 5: 2
depth 6: 0
depth 7: 0
depth 8: 0
depth 9: 0
depth 10: 0
depth 11: 0
depth 12: 0
depth 13: 0
depth 14: 0
depth 15: 0
depth 16: 0
depth 17: 0
depth 18: 0
depth 19: 0
depth 20: 0
depth 21: 0
depth 22: 0
depth 23: 0
depth 24: 0
depth 25: 0
depth 26: 0
depth 27: 0
depth 28: 0
depth 29: 0
-----------------------------
-----------------------------
	Lost due to PQ Size
-----------------------------
6016
-----------------------------
ST read accesses: 2389141
ST write accesses: 204
PT read accesses: 36011875
PT write accesses: 3495899
FILTER read accesses: 8406364
FILTER write accesses: 2043043
GHR read accesses: 754819
GHR write accesses: 116255
GHR counter read accesses: 30393958
GHR counter write accesses: 2646368
ST tag read accesses: 893126611
ST tag write accesses: 42934315

DRAM Statistics
 CHANNEL 0
 RQ ROW_BUFFER_HIT:     507545  ROW_BUFFER_MISS:     559010
 DBUS_CONGESTED:        695
 WQ ROW_BUFFER_HIT:     295316  ROW_BUFFER_MISS:     420415  FULL:      14321

 AVG_CONGESTED_CYCLE: 3
 All warmup complete: 2
Channel 0 Bank busy for read cycles: 0
Channel 0 Bank busy for write cycles: 0
Channel 0
Rank 0
0banks busy for read cycles: 38475394
0banks busy for write cycles: 99884
1banks busy for read cycles: 40888675
1banks busy for write cycles: 21071400
2banks busy for read cycles: 6886653
2banks busy for write cycles: 9222202
3banks busy for read cycles: 962003
3banks busy for write cycles: 3671305
4banks busy for read cycles: 1507785
4banks busy for write cycles: 1707868
5banks busy for read cycles: 392307
5banks busy for write cycles: 1042692
6banks busy for read cycles: 520246
6banks busy for write cycles: 802175
7banks busy for read cycles: 932539
7banks busy for write cycles: 1080212
8banks busy for read cycles: 4437514
8banks busy for write cycles: 6559132

CPU 0 Branch Prediction Accuracy: 99.8317% MPKI: 0.27564 Average ROB Occupancy at Mispredict: 115.818
Branch types
NOT_BRANCH: 41810970 83.6219%
BRANCH_DIRECT_JUMP: 445734 0.891468%
BRANCH_INDIRECT: 48875 0.09775%
BRANCH_CONDITIONAL: 5859370 11.7187%
BRANCH_DIRECT_CALL: 758262 1.51652%
BRANCH_INDIRECT_CALL: 159103 0.318206%
BRANCH_RETURN: 917368 1.83474%
BRANCH_OTHER: 0 0%

DRAM PAGES: 1048576
Allocated PAGES: 23677
