
*** ChampSim Multicore Out-of-Order Simulator ***

Warmup Instructions: 50000000
Simulation Instructions: 50000000
Number of CPUs: 1
LLC sets: 2048
LLC ways: 16
Off-chip DRAM Size: 4096 MB Channels: 1 Width: 64-bit Data Rate: 6400 MT/s
CPU 0 runs ../IPC-traces//server_019.champsimtrace.xz
.xz
BTB has LRU replacement policy
ITLB has LRU replacement policy
DTLB has LRU replacement policy
STLB has LRU replacement policy
CPU 0 L1I next line prefetcher
L1I has LRU replacement policy
IP Table Entries: 64
L1D has LRU replacement policy
Initialize SRRIP state for L2C
Initialize DRRIP state for LLC
Heartbeat CPU 0 instructions: 10000002 cycles: 3180383 heartbeat IPC: 3.14428 cumulative IPC: 3.14428 (Simulation time: 0 hr 2 min 28 sec) 
Heartbeat CPU 0 instructions: 20000001 cycles: 6347768 heartbeat IPC: 3.15718 cumulative IPC: 3.15071 (Simulation time: 0 hr 4 min 53 sec) 
Heartbeat CPU 0 instructions: 30000001 cycles: 9516050 heartbeat IPC: 3.15628 cumulative IPC: 3.15257 (Simulation time: 0 hr 7 min 19 sec) 
Heartbeat CPU 0 instructions: 40000002 cycles: 12696977 heartbeat IPC: 3.14374 cumulative IPC: 3.15036 (Simulation time: 0 hr 9 min 40 sec) 
Heartbeat CPU 0 instructions: 50000001 cycles: 15868186 heartbeat IPC: 3.15337 cumulative IPC: 3.15096 (Simulation time: 0 hr 12 min 4 sec) 

Warmup complete CPU 0 instructions: 50000001 cycles: 15868186 (Simulation time: 0 hr 12 min 4 sec) 

Heartbeat CPU 0 instructions: 60000003 cycles: 37092474 heartbeat IPC: 0.471158 cumulative IPC: 0.471158 (Simulation time: 0 hr 16 min 10 sec) 
Heartbeat CPU 0 instructions: 70000002 cycles: 63275777 heartbeat IPC: 0.381923 cumulative IPC: 0.421873 (Simulation time: 0 hr 20 min 13 sec) 
Heartbeat CPU 0 instructions: 80000001 cycles: 86827048 heartbeat IPC: 0.424605 cumulative IPC: 0.42278 (Simulation time: 0 hr 24 min 1 sec) 
Heartbeat CPU 0 instructions: 90000000 cycles: 106770844 heartbeat IPC: 0.501409 cumulative IPC: 0.440031 (Simulation time: 0 hr 29 min 20 sec) 
Heartbeat CPU 0 instructions: 100000002 cycles: 126558310 heartbeat IPC: 0.50537 cumulative IPC: 0.451712 (Simulation time: 0 hr 34 min 6 sec) 
Finished CPU 0 instructions: 50000001 cycles: 110690124 cumulative IPC: 0.451711 (Simulation time: 0 hr 34 min 6 sec) 

ChampSim completed all CPUs

Region of Interest Statistics

CPU 0 cumulative IPC: 0.451711 instructions: 50000001 cycles: 110690124

CPU 0 Average Load ROB stall cycles: 3.33164e+07
CPU 0 Fraction of times ROB stalled by Loads: 45.4855
CPU 0 Percentage of Load stall cycles in Total stall cycles: 2.52102e+08
Issued all: 48440378
Issued LT all: 43018048
rob_not_full_when_issued_lt_all: 17219639
Issued LT one: 37428749
rob_not_full_when_issued_lt_one: 13304894
FVP critical_dynamic_instances_0: 3082525
FVP unique_critical_ips_0: 3101
 Total stall cycles: 92770543
 Total load stall cycles: 233876037422209
Unique Load IPs: 7411
CPU 0 NUM of IPS identified critical: 0
CPU 0 Num of Load IPs stalling ROB: 0
Threshold modification factor: 0
Trouble in retire width: -nan
MaC = Marked as critical.
lt_50_percent_before_Mac: 0
gt_90_percent_before_Mac: 0
gt_75_percent_before_Mac: 0
gt_50_percent_before_Mac: 0
stall_proportion_bin_same_before_after: 0
stall_proportion_bin_lower_before_after: 0
stall_proportion_bin_upper_before_after: 0
average_stall_proportion_before: -nan
average_stall_proportion_after: -nan
Critical IP stalls, total frequency: 0
Non-critical IP stalls, total frequency: 0
Total Freq all stalling IPs: 0
Critical_IP_Detector_Accuracy_70: 0.000322477
Critical_IP_Detector_Accuracy_80: 0.000322477
Critical_IP_Detector_Accuracy_90: 0.000322477
Critical_IP_Detector_Coverage_70: 1
Critical_IP_Detector_Coverage_80: 1
Critical_IP_Detector_Coverage_90: 1
stat_90_percent_critical_ip_stalls_freq: 251845
stat_90_percent_non_critical_ip_stalls_freq: 18446744073709299771
AVERAGE_ROB_Occupancy_90_Percent_Critical_IP_Stalls: 312.226
AVERAGE_ROB_Occupancy_90_Percent_Non_Critical_IP_Stalls: 2.85809e-11
Critical_IP_ROB_Stalls_Bucket_0: 0
Non-critical_IP_ROB_Stalls_Bucket_0: 458156
Critical_IP_ROB_Stalls_Bucket_1: 0
Non-critical_IP_ROB_Stalls_Bucket_1: 581988
Critical_IP_ROB_Stalls_Bucket_2: 0
Non-critical_IP_ROB_Stalls_Bucket_2: 477617
Critical_IP_ROB_Stalls_Bucket_3: 0
Non-critical_IP_ROB_Stalls_Bucket_3: 334438
Critical_IP_ROB_Stalls_Bucket_4: 0
Non-critical_IP_ROB_Stalls_Bucket_4: 186029
Critical_IP_ROB_Stalls_Bucket_5: 0
Non-critical_IP_ROB_Stalls_Bucket_5: 169338
Critical_IP_ROB_Stalls_Bucket_6: 0
Non-critical_IP_ROB_Stalls_Bucket_6: 985450
0 => IPs accounting for >50 percent of stalls, 1 => 55, 2 => 60, 3 => 65 and so on till 90.
percent50: inf num IPs:  1
percent55: inf num IPs: 1
percent60: inf num IPs: 1
percent65: inf num IPs: 1
percent70: inf num IPs: 1
percent75: inf num IPs: 1
percent80: inf num IPs: 1
percent85: inf num IPs: 1
percent90: inf num IPs: 1
Critical_ROB_Stalls_Percent_0_Bucket_0: 630
Non-critical_ROB_Stalls_Percent_0_Bucket_0: 457526
Critical_ROB_Stalls_Percent_0_Bucket_1: 3146
Non-critical_ROB_Stalls_Percent_0_Bucket_1: 578842
Critical_ROB_Stalls_Percent_0_Bucket_2: 11886
Non-critical_ROB_Stalls_Percent_0_Bucket_2: 465731
Critical_ROB_Stalls_Percent_0_Bucket_3: 17430
Non-critical_ROB_Stalls_Percent_0_Bucket_3: 317008
Critical_ROB_Stalls_Percent_0_Bucket_4: 14899
Non-critical_ROB_Stalls_Percent_0_Bucket_4: 171130
Critical_ROB_Stalls_Percent_0_Bucket_5: 13388
Non-critical_ROB_Stalls_Percent_0_Bucket_5: 155950
Critical_ROB_Stalls_Percent_0_Bucket_6: 190466
Non-critical_ROB_Stalls_Percent_0_Bucket_6: 794984
Critical_ROB_Stalls_Percent_1_Bucket_0: 630
Non-critical_ROB_Stalls_Percent_1_Bucket_0: 457526
Critical_ROB_Stalls_Percent_1_Bucket_1: 3146
Non-critical_ROB_Stalls_Percent_1_Bucket_1: 578842
Critical_ROB_Stalls_Percent_1_Bucket_2: 11886
Non-critical_ROB_Stalls_Percent_1_Bucket_2: 465731
Critical_ROB_Stalls_Percent_1_Bucket_3: 17430
Non-critical_ROB_Stalls_Percent_1_Bucket_3: 317008
Critical_ROB_Stalls_Percent_1_Bucket_4: 14899
Non-critical_ROB_Stalls_Percent_1_Bucket_4: 171130
Critical_ROB_Stalls_Percent_1_Bucket_5: 13388
Non-critical_ROB_Stalls_Percent_1_Bucket_5: 155950
Critical_ROB_Stalls_Percent_1_Bucket_6: 190466
Non-critical_ROB_Stalls_Percent_1_Bucket_6: 794984
Critical_ROB_Stalls_Percent_2_Bucket_0: 630
Non-critical_ROB_Stalls_Percent_2_Bucket_0: 457526
Critical_ROB_Stalls_Percent_2_Bucket_1: 3146
Non-critical_ROB_Stalls_Percent_2_Bucket_1: 578842
Critical_ROB_Stalls_Percent_2_Bucket_2: 11886
Non-critical_ROB_Stalls_Percent_2_Bucket_2: 465731
Critical_ROB_Stalls_Percent_2_Bucket_3: 17430
Non-critical_ROB_Stalls_Percent_2_Bucket_3: 317008
Critical_ROB_Stalls_Percent_2_Bucket_4: 14899
Non-critical_ROB_Stalls_Percent_2_Bucket_4: 171130
Critical_ROB_Stalls_Percent_2_Bucket_5: 13388
Non-critical_ROB_Stalls_Percent_2_Bucket_5: 155950
Critical_ROB_Stalls_Percent_2_Bucket_6: 190466
Non-critical_ROB_Stalls_Percent_2_Bucket_6: 794984
Critical_ROB_Stalls_Percent_3_Bucket_0: 630
Non-critical_ROB_Stalls_Percent_3_Bucket_0: 457526
Critical_ROB_Stalls_Percent_3_Bucket_1: 3146
Non-critical_ROB_Stalls_Percent_3_Bucket_1: 578842
Critical_ROB_Stalls_Percent_3_Bucket_2: 11886
Non-critical_ROB_Stalls_Percent_3_Bucket_2: 465731
Critical_ROB_Stalls_Percent_3_Bucket_3: 17430
Non-critical_ROB_Stalls_Percent_3_Bucket_3: 317008
Critical_ROB_Stalls_Percent_3_Bucket_4: 14899
Non-critical_ROB_Stalls_Percent_3_Bucket_4: 171130
Critical_ROB_Stalls_Percent_3_Bucket_5: 13388
Non-critical_ROB_Stalls_Percent_3_Bucket_5: 155950
Critical_ROB_Stalls_Percent_3_Bucket_6: 190466
Non-critical_ROB_Stalls_Percent_3_Bucket_6: 794984
Critical_ROB_Stalls_Percent_4_Bucket_0: 630
Non-critical_ROB_Stalls_Percent_4_Bucket_0: 457526
Critical_ROB_Stalls_Percent_4_Bucket_1: 3146
Non-critical_ROB_Stalls_Percent_4_Bucket_1: 578842
Critical_ROB_Stalls_Percent_4_Bucket_2: 11886
Non-critical_ROB_Stalls_Percent_4_Bucket_2: 465731
Critical_ROB_Stalls_Percent_4_Bucket_3: 17430
Non-critical_ROB_Stalls_Percent_4_Bucket_3: 317008
Critical_ROB_Stalls_Percent_4_Bucket_4: 14899
Non-critical_ROB_Stalls_Percent_4_Bucket_4: 171130
Critical_ROB_Stalls_Percent_4_Bucket_5: 13388
Non-critical_ROB_Stalls_Percent_4_Bucket_5: 155950
Critical_ROB_Stalls_Percent_4_Bucket_6: 190466
Non-critical_ROB_Stalls_Percent_4_Bucket_6: 794984
Critical_ROB_Stalls_Percent_5_Bucket_0: 630
Non-critical_ROB_Stalls_Percent_5_Bucket_0: 457526
Critical_ROB_Stalls_Percent_5_Bucket_1: 3146
Non-critical_ROB_Stalls_Percent_5_Bucket_1: 578842
Critical_ROB_Stalls_Percent_5_Bucket_2: 11886
Non-critical_ROB_Stalls_Percent_5_Bucket_2: 465731
Critical_ROB_Stalls_Percent_5_Bucket_3: 17430
Non-critical_ROB_Stalls_Percent_5_Bucket_3: 317008
Critical_ROB_Stalls_Percent_5_Bucket_4: 14899
Non-critical_ROB_Stalls_Percent_5_Bucket_4: 171130
Critical_ROB_Stalls_Percent_5_Bucket_5: 13388
Non-critical_ROB_Stalls_Percent_5_Bucket_5: 155950
Critical_ROB_Stalls_Percent_5_Bucket_6: 190466
Non-critical_ROB_Stalls_Percent_5_Bucket_6: 794984
Critical_ROB_Stalls_Percent_6_Bucket_0: 630
Non-critical_ROB_Stalls_Percent_6_Bucket_0: 457526
Critical_ROB_Stalls_Percent_6_Bucket_1: 3146
Non-critical_ROB_Stalls_Percent_6_Bucket_1: 578842
Critical_ROB_Stalls_Percent_6_Bucket_2: 11886
Non-critical_ROB_Stalls_Percent_6_Bucket_2: 465731
Critical_ROB_Stalls_Percent_6_Bucket_3: 17430
Non-critical_ROB_Stalls_Percent_6_Bucket_3: 317008
Critical_ROB_Stalls_Percent_6_Bucket_4: 14899
Non-critical_ROB_Stalls_Percent_6_Bucket_4: 171130
Critical_ROB_Stalls_Percent_6_Bucket_5: 13388
Non-critical_ROB_Stalls_Percent_6_Bucket_5: 155950
Critical_ROB_Stalls_Percent_6_Bucket_6: 190466
Non-critical_ROB_Stalls_Percent_6_Bucket_6: 794984
Critical_ROB_Stalls_Percent_7_Bucket_0: 630
Non-critical_ROB_Stalls_Percent_7_Bucket_0: 457526
Critical_ROB_Stalls_Percent_7_Bucket_1: 3146
Non-critical_ROB_Stalls_Percent_7_Bucket_1: 578842
Critical_ROB_Stalls_Percent_7_Bucket_2: 11886
Non-critical_ROB_Stalls_Percent_7_Bucket_2: 465731
Critical_ROB_Stalls_Percent_7_Bucket_3: 17430
Non-critical_ROB_Stalls_Percent_7_Bucket_3: 317008
Critical_ROB_Stalls_Percent_7_Bucket_4: 14899
Non-critical_ROB_Stalls_Percent_7_Bucket_4: 171130
Critical_ROB_Stalls_Percent_7_Bucket_5: 13388
Non-critical_ROB_Stalls_Percent_7_Bucket_5: 155950
Critical_ROB_Stalls_Percent_7_Bucket_6: 190466
Non-critical_ROB_Stalls_Percent_7_Bucket_6: 794984
Critical_ROB_Stalls_Percent_8_Bucket_0: 630
Non-critical_ROB_Stalls_Percent_8_Bucket_0: 457526
Critical_ROB_Stalls_Percent_8_Bucket_1: 3146
Non-critical_ROB_Stalls_Percent_8_Bucket_1: 578842
Critical_ROB_Stalls_Percent_8_Bucket_2: 11886
Non-critical_ROB_Stalls_Percent_8_Bucket_2: 465731
Critical_ROB_Stalls_Percent_8_Bucket_3: 17430
Non-critical_ROB_Stalls_Percent_8_Bucket_3: 317008
Critical_ROB_Stalls_Percent_8_Bucket_4: 14899
Non-critical_ROB_Stalls_Percent_8_Bucket_4: 171130
Critical_ROB_Stalls_Percent_8_Bucket_5: 13388
Non-critical_ROB_Stalls_Percent_8_Bucket_5: 155950
Critical_ROB_Stalls_Percent_8_Bucket_6: 190466
Non-critical_ROB_Stalls_Percent_8_Bucket_6: 794984
Average ROB occupancy Load Stall Begin: 180.452
Average ROB occupancy Load Stall End: 189.744
Min ROB occupancy Load Stall Begin: 1
Max ROB occupancy Load Stall Begin: 352
Min ROB occupancy Load Stall End: 1
Max ROB occupancy Load Stall End: 352
Average ROB occupancy Critical Load Stall Begin: -nan
Average ROB occupancy Critical Load Stall End: -nan
Min ROB occupancy Critical Load Stall Begin: 400
Max ROB occupancy Critical Load Stall Begin: 0
Min ROB occupancy Critical Load Stall End: 400
Max ROB occupancy Critical Load Stall End: 0
 ROB Load Stall Begin Bucket Count 0: 649544
 ROB Load Stall End Bucket Count 0: 458156
 ROB Critical Load Stall Begin Bucket Count 0: 0
 ROB Critical Load Stall End Bucket Count 0: 0
 ROB Load Stall Begin Bucket Count 1: 538965
 ROB Load Stall End Bucket Count 1: 581988
 ROB Critical Load Stall Begin Bucket Count 1: 0
 ROB Critical Load Stall End Bucket Count 1: 0
 ROB Load Stall Begin Bucket Count 2: 434877
 ROB Load Stall End Bucket Count 2: 477617
 ROB Critical Load Stall Begin Bucket Count 2: 0
 ROB Critical Load Stall End Bucket Count 2: 0
 ROB Load Stall Begin Bucket Count 3: 279722
 ROB Load Stall End Bucket Count 3: 334438
 ROB Critical Load Stall Begin Bucket Count 3: 0
 ROB Critical Load Stall End Bucket Count 3: 0
 ROB Load Stall Begin Bucket Count 4: 172402
 ROB Load Stall End Bucket Count 4: 186029
 ROB Critical Load Stall Begin Bucket Count 4: 0
 ROB Critical Load Stall End Bucket Count 4: 0
 ROB Load Stall Begin Bucket Count 5: 163577
 ROB Load Stall End Bucket Count 5: 169338
 ROB Critical Load Stall Begin Bucket Count 5: 0
 ROB Critical Load Stall End Bucket Count 5: 0
 ROB Load Stall Begin Bucket Count 6: 953929
 ROB Load Stall End Bucket Count 6: 985450
 ROB Critical Load Stall Begin Bucket Count 6: 0
 ROB Critical Load Stall End Bucket Count 6: 0
PIST Tag Read Accesses: 0
PIST Read Accesses: 0
PIST Tag Write Accesses: 0
PIST Write Accesses: 0
Criticality detector called times: 0
Max global_stall_cycles_count: 0
Threshold Modified: 0 times, factor: 0
ITLB TOTAL     ACCESS:    9979566  HIT:    9552374  MISS:     427192  HIT %:    95.7193  MISS %:    4.28067   MPKI: 8.54384
ITLB LOAD TRANSLATION ACCESS:    8274198  HIT:    8262066  MISS:      12132  HIT %:    99.8534  MISS %:   0.146624   MPKI: 0.24264
ITLB TRANSLATION FROM L1D PREFETCHER ACCESS:    1705368  HIT:    1290308  MISS:     415060  HIT %:    75.6616  MISS %:    24.3384   MPKI: 8.3012
ITLB PREFETCH  REQUESTED:          0  ISSUED:          0  USEFUL:     368211  USELESS:      46843
ITLB USEFUL LOAD PREFETCHES:     368211 PREFETCH ISSUED TO LOWER LEVEL:          0  ACCURACY: inf
ITLB TIMELY PREFETCHES:     368211 LATE PREFETCHES: 332 DROPPED PREFETCHES: 90
ITLB PREFETCHES SAME FILL-ORIGIN LEVEL: 0 DIFFERENT FILL-ORIGIN LEVEL: 0
ITLB AVERAGE MISS LATENCY: 54327.8 cycles
ITLB RQ	ACCESS:   14112013	FORWARD:          0	MERGED:    4089378	TO_CACHE:   10022635

DTLB TOTAL     ACCESS:   10541768  HIT:   10099303  MISS:     442465  HIT %:    95.8027  MISS %:    4.19726   MPKI: 8.8493
DTLB LOAD TRANSLATION ACCESS:   10541768  HIT:   10099303  MISS:     442465  HIT %:    95.8027  MISS %:    4.19726   MPKI: 8.8493
DTLB PREFETCH  REQUESTED:          0  ISSUED:          0  USEFUL:          0  USELESS:          0
DTLB USEFUL LOAD PREFETCHES:          0 PREFETCH ISSUED TO LOWER LEVEL:          0  ACCURACY: -nan
DTLB TIMELY PREFETCHES:          0 LATE PREFETCHES: 0 DROPPED PREFETCHES: 0
DTLB PREFETCHES SAME FILL-ORIGIN LEVEL: 0 DIFFERENT FILL-ORIGIN LEVEL: 0
DTLB AVERAGE MISS LATENCY: 26.4589 cycles
DTLB RQ	ACCESS:   15303707	FORWARD:          0	MERGED:    4680548	TO_CACHE:   10623159

STLB TOTAL     ACCESS:    1499965  HIT:    1433846  MISS:      66119  HIT %:     95.592  MISS %:    4.40804   MPKI: 1.32238
STLB LOAD TRANSLATION ACCESS:     454265  HIT:     389126  MISS:      65139  HIT %:    85.6606  MISS %:    14.3394   MPKI: 1.30278
STLB TRANSLATION FROM L1D PREFETCHER ACCESS:    1045700  HIT:    1044720  MISS:        980  HIT %:    99.9063  MISS %:  0.0937171   MPKI: 0.0196
STLB PREFETCH  REQUESTED:          0  ISSUED:          0  USEFUL:        776  USELESS:        222
STLB USEFUL LOAD PREFETCHES:        776 PREFETCH ISSUED TO LOWER LEVEL:          0  ACCURACY: inf
STLB TIMELY PREFETCHES:        776 LATE PREFETCHES: 0 DROPPED PREFETCHES: 90
STLB PREFETCHES SAME FILL-ORIGIN LEVEL: 0 DIFFERENT FILL-ORIGIN LEVEL: 0
STLB AVERAGE MISS LATENCY: 120.987 cycles
STLB RQ	ACCESS:    2171382	FORWARD:          0	MERGED:     671325	TO_CACHE:    1500057

STLB Hit, L1D data hit: 0
STLB Hit, L2C data hit: 0
STLB Hit, LLC data hit: 0
STLB Hit, LLC data miss: 0
STLB STLB hints to L2: 0
L1D TOTAL     ACCESS:   14274454  HIT:   11878703  MISS:    2395751  HIT %:    83.2165  MISS %:    16.7835   MPKI: 47.915
L1D LOAD      ACCESS:    7257963  HIT:    6644169  MISS:     613794  HIT %:    91.5432  MISS %:    8.45684   MPKI: 12.2759
L1D RFO       ACCESS:    5751066  HIT:    4837767  MISS:     913299  HIT %:    84.1195  MISS %:    15.8805   MPKI: 18.266
L1D PREFETCH  ACCESS:    1265425  HIT:     396767  MISS:     868658  HIT %:    31.3544  MISS %:    68.6456   MPKI: 17.3732
L1D PREFETCH  REQUESTED:    2617521  ISSUED:    2603284  USEFUL:     296602  USELESS:     572032
L1D USEFUL LOAD PREFETCHES:     296602 PREFETCH ISSUED TO LOWER LEVEL:     886541  ACCURACY: 33.4561
L1D TIMELY PREFETCHES:     296602 LATE PREFETCHES: 17872 DROPPED PREFETCHES: 0
L1D PREFETCHES SAME FILL-ORIGIN LEVEL: 886541 DIFFERENT FILL-ORIGIN LEVEL: 0
L1D AVERAGE MISS LATENCY: 584291 cycles
L1D RQ	ACCESS:   10681681	FORWARD:          0	MERGED:    3277093	TO_CACHE:    7296805
L1D WQ	ACCESS:    8106889	FORWARD:     107800	MERGED:      99987	TO_CACHE:    8006902
L1D PQ	ACCESS:    1301651	FORWARD:          0	MERGED:          1	TO_CACHE:    1301633

L1D UNIQUE REGIONS ACCESSED: 0
L1D REGIONS CONFLICTS: 0
L1D Cross Page Prefetch Requests: 0
L1D Same Page Prefetch Requests: 1733973
L1D ROI Sum of L1D PQ occupancy: 24198035
L1D PREFETCHES PUSHED FROM L2C: 0
L1I TOTAL     ACCESS:   14040793  HIT:   11214689  MISS:    2826104  HIT %:    79.8722  MISS %:    20.1278   MPKI: 56.5221
L1I LOAD      ACCESS:    9624073  HIT:    9604754  MISS:      19319  HIT %:    99.7993  MISS %:   0.200736   MPKI: 0.38638
L1I PREFETCH  ACCESS:    4416720  HIT:    1609935  MISS:    2806785  HIT %:    36.4509  MISS %:    63.5491   MPKI: 56.1357
L1I PREFETCH  REQUESTED:    4661530  ISSUED:    4648355  USEFUL:    2335802  USELESS:     471015
L1I USEFUL LOAD PREFETCHES:    2335802 PREFETCH ISSUED TO LOWER LEVEL:    2812940  ACCURACY: 83.0377
L1I TIMELY PREFETCHES:    2335802 LATE PREFETCHES: 6151 DROPPED PREFETCHES: 157
L1I PREFETCHES SAME FILL-ORIGIN LEVEL: 2812940 DIFFERENT FILL-ORIGIN LEVEL: 0
L1I AVERAGE MISS LATENCY: 147807 cycles
L1I RQ	ACCESS:   13981693	FORWARD:          0	MERGED:    4352915	TO_CACHE:    9628778
L1I PQ	ACCESS:    4648355	FORWARD:          0	MERGED:     165120	TO_CACHE:    4483235

BTB TOTAL     ACCESS:    5496535  HIT:    5258217  MISS:     238318  HIT %:    95.6642  MISS %:    4.33579   MPKI: 4.76636
BTB BRANCH_DIRECT_JUMP	ACCESS:     462382  HIT:     460596  MISS:       1786
BTB BRANCH_INDIRECT	ACCESS:      45460  HIT:      45289  MISS:        171
BTB BRANCH_CONDITIONAL	ACCESS:    3246751  HIT:    3240930  MISS:       5821
BTB BRANCH_DIRECT_CALL	ACCESS:     666239  HIT:     662428  MISS:       3811
BTB BRANCH_INDIRECT_CALL	ACCESS:     204728  HIT:     179061  MISS:      25667
BTB BRANCH_RETURN	ACCESS:     870975  HIT:     669913  MISS:     201062
BTB BRANCH_OTHER ACCESS:          0  HIT:          0  MISS:          0

L2C TOTAL     ACCESS:    6482656  HIT:    4221099  MISS:    2261557  HIT %:    65.1137  MISS %:    34.8863   MPKI: 45.2311
L2C LOAD      ACCESS:     609076  HIT:     202494  MISS:     406582  HIT %:    33.2461  MISS %:    66.7539   MPKI: 8.13164
L2C DATA LOAD MPKI: 8.01684
L2C INSTRUCTION LOAD MPKI: 0.1148
L2C RFO       ACCESS:     913274  HIT:      31254  MISS:     882020  HIT %:    3.42219  MISS %:    96.5778   MPKI: 17.6404
L2C PREFETCH  ACCESS:    3699473  HIT:    2793638  MISS:     905835  HIT %:    75.5145  MISS %:    24.4855   MPKI: 18.1167
L2C DATA PREFETCH MPKI: 15.2629
L2C INSTRUCTION PREFETCH MPKI: 2.85382
L2C WRITEBACK ACCESS:    1168010  HIT:    1135680  MISS:      32330  HIT %:     97.232  MISS %:    2.76796   MPKI: 0.6466
L2C LOAD TRANSLATION ACCESS:      91183  HIT:      57402  MISS:      33781  HIT %:    62.9525  MISS %:    37.0475   MPKI: 0.67562
L2C TRANSLATION FROM L1D PREFETCHER ACCESS:       1640  HIT:        631  MISS:       1009  HIT %:    38.4756  MISS %:    61.5244   MPKI: 0.02018
L2C PREFETCH  REQUESTED:          0  ISSUED:          0  USEFUL:       8745  USELESS:     897590
L2C USEFUL LOAD PREFETCHES:       8745 PREFETCH ISSUED TO LOWER LEVEL:     905835  ACCURACY: 0.965408
L2C TIMELY PREFETCHES:       8745 LATE PREFETCHES: 0 DROPPED PREFETCHES: 0
L2C PREFETCHES SAME FILL-ORIGIN LEVEL: 0 DIFFERENT FILL-ORIGIN LEVEL: 0
L2C AVERAGE MISS LATENCY: 195.526 cycles
L2C RQ	ACCESS:    1615204	FORWARD:          0	MERGED:          0	TO_CACHE:    1615173
L2C WQ	ACCESS:    1168010	FORWARD:         33	MERGED:          0	TO_CACHE:    1168010
L2C PQ	ACCESS:    3699478	FORWARD:          0	MERGED:          0	TO_CACHE:    3699476

L2C Instructions Evicting Data 134208
L2C Translations Evicting Data 31688
L2C Data Evicting Data 1883983
L2C Instructions Evicting Instructions 11790
L2C Translations Evicting Instructions 2581
L2C Data Evicting Instructions 130672
L2C Instructions Evicting Translations 2433
L2C Translations Evicting Translations 521
L2C Data Evicting Translations 31351
L2C Dense regions hint from L2: 0
PSCL5 TOTAL     ACCESS:      66209  HIT:      66209  MISS:          0  HIT %:        100  MISS %:          0   MPKI: 0
PSCL5 LOAD TRANSLATION ACCESS:      65139  HIT:      65139  MISS:          0  HIT %:        100  MISS %:          0   MPKI: 0
PSCL5 TRANSLATION FROM L1D PREFETCHER ACCESS:       1070  HIT:       1070  MISS:          0  HIT %:        100  MISS %:          0   MPKI: 0
PSCL5 PREFETCH  REQUESTED:          0  ISSUED:          0  USEFUL:          0  USELESS:          0
PSCL5 USEFUL LOAD PREFETCHES:          0 PREFETCH ISSUED TO LOWER LEVEL:          0  ACCURACY: -nan
PSCL5 TIMELY PREFETCHES:          0 LATE PREFETCHES: 0 DROPPED PREFETCHES: 0
PSCL5 PREFETCHES SAME FILL-ORIGIN LEVEL: 0 DIFFERENT FILL-ORIGIN LEVEL: 0

PSCL4 TOTAL     ACCESS:      65243  HIT:      65125  MISS:        118  HIT %:    99.8191  MISS %:   0.180862   MPKI: 0.00236
PSCL4 LOAD TRANSLATION ACCESS:      64247  HIT:      64129  MISS:        118  HIT %:    99.8163  MISS %:   0.183666   MPKI: 0.00236
PSCL4 TRANSLATION FROM L1D PREFETCHER ACCESS:        996  HIT:        996  MISS:          0  HIT %:        100  MISS %:          0   MPKI: 0
PSCL4 PREFETCH  REQUESTED:          0  ISSUED:          0  USEFUL:          0  USELESS:          0
PSCL4 USEFUL LOAD PREFETCHES:          0 PREFETCH ISSUED TO LOWER LEVEL:          0  ACCURACY: -nan
PSCL4 TIMELY PREFETCHES:          0 LATE PREFETCHES: 0 DROPPED PREFETCHES: 0
PSCL4 PREFETCHES SAME FILL-ORIGIN LEVEL: 0 DIFFERENT FILL-ORIGIN LEVEL: 0

PSCL3 TOTAL     ACCESS:      65807  HIT:      65335  MISS:        472  HIT %:    99.2828  MISS %:   0.717249   MPKI: 0.00944
PSCL3 LOAD TRANSLATION ACCESS:      64866  HIT:      64394  MISS:        472  HIT %:    99.2723  MISS %:   0.727654   MPKI: 0.00944
PSCL3 TRANSLATION FROM L1D PREFETCHER ACCESS:        941  HIT:        941  MISS:          0  HIT %:        100  MISS %:          0   MPKI: 0
PSCL3 PREFETCH  REQUESTED:          0  ISSUED:          0  USEFUL:          0  USELESS:          0
PSCL3 USEFUL LOAD PREFETCHES:          0 PREFETCH ISSUED TO LOWER LEVEL:          0  ACCURACY: -nan
PSCL3 TIMELY PREFETCHES:          0 LATE PREFETCHES: 0 DROPPED PREFETCHES: 0
PSCL3 PREFETCHES SAME FILL-ORIGIN LEVEL: 0 DIFFERENT FILL-ORIGIN LEVEL: 0

PSCL2 TOTAL     ACCESS:      66125  HIT:      40160  MISS:      25965  HIT %:    60.7335  MISS %:    39.2665   MPKI: 0.5193
PSCL2 LOAD TRANSLATION ACCESS:      65495  HIT:      39530  MISS:      25965  HIT %:    60.3558  MISS %:    39.6442   MPKI: 0.5193
PSCL2 TRANSLATION FROM L1D PREFETCHER ACCESS:        630  HIT:        630  MISS:          0  HIT %:        100  MISS %:          0   MPKI: 0
PSCL2 PREFETCH  REQUESTED:          0  ISSUED:          0  USEFUL:          0  USELESS:          0
PSCL2 USEFUL LOAD PREFETCHES:          0 PREFETCH ISSUED TO LOWER LEVEL:          0  ACCURACY: -nan
PSCL2 TIMELY PREFETCHES:          0 LATE PREFETCHES: 0 DROPPED PREFETCHES: 0
PSCL2 PREFETCHES SAME FILL-ORIGIN LEVEL: 0 DIFFERENT FILL-ORIGIN LEVEL: 0

LLC TOTAL     ACCESS:    3321446  HIT:    1372126  MISS:    1949320  HIT %:    41.3111  MISS %:    58.6889   MPKI: 38.9864
LLC LOAD      ACCESS:     406580  HIT:     228276  MISS:     178304  HIT %:    56.1454  MISS %:    43.8546   MPKI: 3.56608
LLC RFO       ACCESS:     882020  HIT:     156811  MISS:     725209  HIT %:    17.7786  MISS %:    82.2214   MPKI: 14.5042
LLC PREFETCH  ACCESS:     905835  HIT:     220859  MISS:     684976  HIT %:    24.3818  MISS %:    75.6182   MPKI: 13.6995
LLC WRITEBACK ACCESS:    1092221  HIT:     749624  MISS:     342597  HIT %:     68.633  MISS %:     31.367   MPKI: 6.85194
LLC LOAD TRANSLATION ACCESS:      33781  HIT:      16075  MISS:      17706  HIT %:    47.5859  MISS %:    52.4141   MPKI: 0.35412
LLC TRANSLATION FROM L1D PREFETCHER ACCESS:       1009  HIT:        481  MISS:        528  HIT %:     47.671  MISS %:     52.329   MPKI: 0.01056
LLC PREFETCH  REQUESTED:          0  ISSUED:          0  USEFUL:       8131  USELESS:     670355
LLC USEFUL LOAD PREFETCHES:       8131 PREFETCH ISSUED TO LOWER LEVEL:     684976  ACCURACY: 1.18705
LLC TIMELY PREFETCHES:       8131 LATE PREFETCHES: 0 DROPPED PREFETCHES: 0
LLC PREFETCHES SAME FILL-ORIGIN LEVEL: 0 DIFFERENT FILL-ORIGIN LEVEL: 0
LLC AVERAGE MISS LATENCY: 191.207 cycles
LLC RQ	ACCESS:    1323392	FORWARD:          0	MERGED:          0	TO_CACHE:    1323390
LLC WQ	ACCESS:    1092221	FORWARD:          2	MERGED:          0	TO_CACHE:    1092221
LLC PQ	ACCESS:     905835	FORWARD:          0	MERGED:          0	TO_CACHE:     905835

LLC Dense regions hint to LLC: 0

RAW hits: 1302264
Loads Generated: 11983945
Loads sent to L1D: 10681681
Stores Generated: 8106873
Stores sent to L1D: 8106889
Major fault: 0 Minor fault: 25901
Allocated PAGES: 25901
I-Shadow cache 408 bytes
Touched + WorthPF tables 6144 bytes 
MMA filter 174 bytes 
FNL filter 272 bytes 
TOTAL PREFETCHER STORAGE SIZE: 25174 bytes
CPU 0 L1I next line prefetcher final stats

stream: 
stream:times selected: 1912159
stream:pref_filled: 1059125
stream:pref_useful: 515198
stream:pref_late: 18065
stream:misses: 26490
stream:misses_by_poll: 0

CS: 
CS:times selected: 1368276
CS:pref_filled: 7004
CS:pref_useful: 6792
CS:pref_late: 900
CS:misses: 27448
CS:misses_by_poll: 21

CPLX: 
CPLX:times selected: 540260
CPLX:pref_filled: 83356
CPLX:pref_useful: 32792
CPLX:pref_late: 242
CPLX:misses: 81071
CPLX:misses_by_poll: 110

NL_L1: 
NL:times selected: 2025
NL:pref_filled: 747
NL:pref_useful: 63
NL:pref_late: 23
NL:misses: 928
NL:misses_by_poll: 0

total selections: 3822720
total_filled: 868658
total_useful: 296602
total_late: 19803
total_polluted: 131
total_misses_after_warmup: 179184
conflicts: 115619
Degree Incremented Times: 16497
Degree Decremented Times: 4617

L1 IP Table Write Accesses: 2229688
L1 IP Table Read Accesses: 2114069
L1 RST Write Accesses: 1544021
L1 RST Read Accesses: 3088042
L1 CSPT Write Accesses: 1544021
L1 CSPT Read Accesses: 2202960
L1 RR Filter Tag Write Accesses: 1315888
L1 RR Filter Tag Read Accesses: 367181626
L1 IP Table Tag Write Accesses: 2401385
L1 IP Table Tag Read Accesses: 2401385
L1 RST Tag Write Accesses: 0
L1 RST Tag Read Accesses: 13941449
L1 RR Filter Write Accesses: 0
L1 RR Filter Read Accesses: 12613251
test: 236739

DRAM Statistics
 CHANNEL 0
 RQ ROW_BUFFER_HIT:     454267  ROW_BUFFER_MISS:    1152338
 DBUS_CONGESTED:        504
 WQ ROW_BUFFER_HIT:     190557  ROW_BUFFER_MISS:     671576  FULL:      10089

 AVG_CONGESTED_CYCLE: 3
 All warmup complete: 2
Channel 0 Bank busy for read cycles: 0
Channel 0 Bank busy for write cycles: 0
Channel 0
Rank 0
0banks busy for read cycles: 22217580
0banks busy for write cycles: 37375
1banks busy for read cycles: 18175669
1banks busy for write cycles: 5555807
2banks busy for read cycles: 9936580
2banks busy for write cycles: 2768086
3banks busy for read cycles: 4749143
3banks busy for write cycles: 1724905
4banks busy for read cycles: 4745778
4banks busy for write cycles: 1467569
5banks busy for read cycles: 3180594
5banks busy for write cycles: 1502236
6banks busy for read cycles: 3583231
6banks busy for write cycles: 1821906
7banks busy for read cycles: 5390454
7banks busy for write cycles: 3245292
8banks busy for read cycles: 6553710
8banks busy for write cycles: 14034210

CPU 0 Branch Prediction Accuracy: 99.2186% MPKI: 1.3219 Average ROB Occupancy at Mispredict: 135.611
Branch types
NOT_BRANCH: 41540709 83.0814%
BRANCH_DIRECT_JUMP: 462382 0.924764%
BRANCH_INDIRECT: 45460 0.09092%
BRANCH_CONDITIONAL: 6209260 12.4185%
BRANCH_DIRECT_CALL: 666239 1.33248%
BRANCH_INDIRECT_CALL: 204728 0.409456%
BRANCH_RETURN: 870975 1.74195%
BRANCH_OTHER: 0 0%

DRAM PAGES: 1048576
Allocated PAGES: 25901
