
*** ChampSim Multicore Out-of-Order Simulator ***

Warmup Instructions: 50000000
Simulation Instructions: 50000000
Number of CPUs: 1
LLC sets: 2048
LLC ways: 16
Off-chip DRAM Size: 4096 MB Channels: 1 Width: 64-bit Data Rate: 6400 MT/s
CPU 0 runs ../IPC-traces//server_021.champsimtrace.xz
.xz
NUM_OF_IPS_IN_CRITICAL_IP_TRAINING: 64
NUM_OF_CRITICAL_IP_TRAINING_TABLE_WAYS: 2
NUM_OF_CRITICAL_IP_TRAINING_TABLE_SETS: 32
WOBBLY_CRITICAL_IP_CACHE_SETS: 32
WOBBLY_CRITICAL_IP_CACHE_WAYS: 4
BTB has LRU replacement policy
ITLB has LRU replacement policy
DTLB has LRU replacement policy
STLB has LRU replacement policy
CPU 0 L1I next line prefetcher
L1I has LRU replacement policy
IP Table Entries: 256
L1D has LRU replacement policy
Initialize SRRIP state for L2C
Initialize DRRIP state for LLC
Heartbeat CPU 0 instructions: 10000000 cycles: 3153396 heartbeat IPC: 3.17118 cumulative IPC: 3.17118 (Simulation time: 0 hr 6 min 53 sec) 
Heartbeat CPU 0 instructions: 20000000 cycles: 6299047 heartbeat IPC: 3.17899 cumulative IPC: 3.17508 (Simulation time: 0 hr 14 min 7 sec) 
Heartbeat CPU 0 instructions: 30000000 cycles: 9481208 heartbeat IPC: 3.14252 cumulative IPC: 3.16415 (Simulation time: 0 hr 21 min 15 sec) 
Heartbeat CPU 0 instructions: 40000002 cycles: 12618396 heartbeat IPC: 3.18757 cumulative IPC: 3.16998 (Simulation time: 0 hr 28 min 3 sec) 
Heartbeat CPU 0 instructions: 50000000 cycles: 15786320 heartbeat IPC: 3.15664 cumulative IPC: 3.1673 (Simulation time: 0 hr 34 min 26 sec) 

Warmup complete CPU 0 instructions: 50000004 cycles: 15786321 (Simulation time: 0 hr 34 min 26 sec) 

% increase in all ip prefetch 466.185
% increase in all ip prefetch 3.00501
Heartbeat CPU 0 instructions: 60000001 cycles: 34644241 heartbeat IPC: 0.530281 cumulative IPC: 0.530281 (Simulation time: 0 hr 41 min 57 sec) 
Heartbeat CPU 0 instructions: 70000000 cycles: 52903433 heartbeat IPC: 0.547669 cumulative IPC: 0.538835 (Simulation time: 0 hr 48 min 30 sec) 
Heartbeat CPU 0 instructions: 80000003 cycles: 70685695 heartbeat IPC: 0.562358 cumulative IPC: 0.546454 (Simulation time: 0 hr 52 min 54 sec) 
Heartbeat CPU 0 instructions: 90000000 cycles: 88507955 heartbeat IPC: 0.561096 cumulative IPC: 0.550043 (Simulation time: 0 hr 57 min 50 sec) 
Heartbeat CPU 0 instructions: 100000002 cycles: 106297547 heartbeat IPC: 0.562127 cumulative IPC: 0.552418 (Simulation time: 1 hr 2 min 18 sec) 
Finished CPU 0 instructions: 50000002 cycles: 90511227 cumulative IPC: 0.552418 (Simulation time: 1 hr 2 min 18 sec) 

ChampSim completed all CPUs

Region of Interest Statistics

CPU 0 cumulative IPC: 0.552418 instructions: 50000002 cycles: 90511227

CPU 0 Average Load ROB stall cycles: 2.80589e+07
CPU 0 Fraction of times ROB stalled by Loads: 45.4988
CPU 0 Percentage of Load stall cycles in Total stall cycles: 2.73816e+08
Issued all: 48566361
Issued LT all: 43270428
rob_not_full_when_issued_lt_all: 16841025
Issued LT one: 37434223
rob_not_full_when_issued_lt_one: 12800132
 Total stall cycles: 72966716
 Total load stall cycles: 199794367466223
CPU 0 NUM of IPS identified critical: 0
CPU 0 Num of Load IPs stalling ROB: 4789
Threshold modification factor: -1
Max PIST entries: 64
Min PIST entries: 0
Avg PIST entries: 32
Trouble in retire width: 0.797491
MaC = Marked as critical.
lt_50_percent_before_Mac: 0
gt_90_percent_before_Mac: 0
gt_75_percent_before_Mac: 0
gt_50_percent_before_Mac: 0
stall_proportion_bin_same_before_after: 0
stall_proportion_bin_lower_before_after: 0
stall_proportion_bin_upper_before_after: 0
average_stall_proportion_before: -nan
average_stall_proportion_after: -nan
Critical IP stalls, total frequency: 0
Non-critical IP stalls, total frequency: 3239749
Total Freq all stalling IPs: 3239749
stat_90_percent_critical_ip_stalls_freq: 2916766
stat_90_percent_non_critical_ip_stalls_freq: 322983
Critical_IP_ROB_Stalls_Bucket_0: 0
Non-critical_IP_ROB_Stalls_Bucket_0: 507940
Critical_IP_ROB_Stalls_Bucket_1: 0
Non-critical_IP_ROB_Stalls_Bucket_1: 611414
Critical_IP_ROB_Stalls_Bucket_2: 0
Non-critical_IP_ROB_Stalls_Bucket_2: 428967
Critical_IP_ROB_Stalls_Bucket_3: 0
Non-critical_IP_ROB_Stalls_Bucket_3: 260343
Critical_IP_ROB_Stalls_Bucket_4: 0
Non-critical_IP_ROB_Stalls_Bucket_4: 170073
Critical_IP_ROB_Stalls_Bucket_5: 0
Non-critical_IP_ROB_Stalls_Bucket_5: 154304
Critical_IP_ROB_Stalls_Bucket_6: 0
Non-critical_IP_ROB_Stalls_Bucket_6: 1106708
0 => IPs accounting for >50 percent of stalls, 1 => 55, 2 => 60, 3 => 65 and so on till 90.
percent50: 50.2723 num IPs:  12
percent55: 55.0654 num IPs: 30
percent60: 60.0445 num IPs: 61
percent65: 65.0231 num IPs: 107
percent70: 70.023 num IPs: 174
percent75: 75.0599 num IPs: 242
percent80: 80.0242 num IPs: 311
percent85: 85.0314 num IPs: 388
percent90: 90.0304 num IPs: 485
Critical_ROB_Stalls_Percent_0_Bucket_0: 53145
Non-critical_ROB_Stalls_Percent_0_Bucket_0: 454795
Critical_ROB_Stalls_Percent_0_Bucket_1: 112727
Non-critical_ROB_Stalls_Percent_0_Bucket_1: 498687
Critical_ROB_Stalls_Percent_0_Bucket_2: 121819
Non-critical_ROB_Stalls_Percent_0_Bucket_2: 307148
Critical_ROB_Stalls_Percent_0_Bucket_3: 136409
Non-critical_ROB_Stalls_Percent_0_Bucket_3: 123934
Critical_ROB_Stalls_Percent_0_Bucket_4: 112752
Non-critical_ROB_Stalls_Percent_0_Bucket_4: 57321
Critical_ROB_Stalls_Percent_0_Bucket_5: 106474
Non-critical_ROB_Stalls_Percent_0_Bucket_5: 47830
Critical_ROB_Stalls_Percent_0_Bucket_6: 985370
Non-critical_ROB_Stalls_Percent_0_Bucket_6: 121338
Critical_ROB_Stalls_Percent_1_Bucket_0: 126085
Non-critical_ROB_Stalls_Percent_1_Bucket_0: 381855
Critical_ROB_Stalls_Percent_1_Bucket_1: 156240
Non-critical_ROB_Stalls_Percent_1_Bucket_1: 455174
Critical_ROB_Stalls_Percent_1_Bucket_2: 140714
Non-critical_ROB_Stalls_Percent_1_Bucket_2: 288253
Critical_ROB_Stalls_Percent_1_Bucket_3: 143781
Non-critical_ROB_Stalls_Percent_1_Bucket_3: 116562
Critical_ROB_Stalls_Percent_1_Bucket_4: 117332
Non-critical_ROB_Stalls_Percent_1_Bucket_4: 52741
Critical_ROB_Stalls_Percent_1_Bucket_5: 109857
Non-critical_ROB_Stalls_Percent_1_Bucket_5: 44447
Critical_ROB_Stalls_Percent_1_Bucket_6: 989973
Non-critical_ROB_Stalls_Percent_1_Bucket_6: 116735
Critical_ROB_Stalls_Percent_2_Bucket_0: 173892
Non-critical_ROB_Stalls_Percent_2_Bucket_0: 334048
Critical_ROB_Stalls_Percent_2_Bucket_1: 194743
Non-critical_ROB_Stalls_Percent_2_Bucket_1: 416671
Critical_ROB_Stalls_Percent_2_Bucket_2: 170838
Non-critical_ROB_Stalls_Percent_2_Bucket_2: 258129
Critical_ROB_Stalls_Percent_2_Bucket_3: 149946
Non-critical_ROB_Stalls_Percent_2_Bucket_3: 110397
Critical_ROB_Stalls_Percent_2_Bucket_4: 121849
Non-critical_ROB_Stalls_Percent_2_Bucket_4: 48224
Critical_ROB_Stalls_Percent_2_Bucket_5: 118784
Non-critical_ROB_Stalls_Percent_2_Bucket_5: 35520
Critical_ROB_Stalls_Percent_2_Bucket_6: 1015239
Non-critical_ROB_Stalls_Percent_2_Bucket_6: 91469
Critical_ROB_Stalls_Percent_3_Bucket_0: 215658
Non-critical_ROB_Stalls_Percent_3_Bucket_0: 292282
Critical_ROB_Stalls_Percent_3_Bucket_1: 237486
Non-critical_ROB_Stalls_Percent_3_Bucket_1: 373928
Critical_ROB_Stalls_Percent_3_Bucket_2: 203899
Non-critical_ROB_Stalls_Percent_3_Bucket_2: 225068
Critical_ROB_Stalls_Percent_3_Bucket_3: 159668
Non-critical_ROB_Stalls_Percent_3_Bucket_3: 100675
Critical_ROB_Stalls_Percent_3_Bucket_4: 127173
Non-critical_ROB_Stalls_Percent_3_Bucket_4: 42900
Critical_ROB_Stalls_Percent_3_Bucket_5: 124819
Non-critical_ROB_Stalls_Percent_3_Bucket_5: 29485
Critical_ROB_Stalls_Percent_3_Bucket_6: 1037884
Non-critical_ROB_Stalls_Percent_3_Bucket_6: 68824
Critical_ROB_Stalls_Percent_4_Bucket_0: 232154
Non-critical_ROB_Stalls_Percent_4_Bucket_0: 275786
Critical_ROB_Stalls_Percent_4_Bucket_1: 298108
Non-critical_ROB_Stalls_Percent_4_Bucket_1: 313306
Critical_ROB_Stalls_Percent_4_Bucket_2: 237767
Non-critical_ROB_Stalls_Percent_4_Bucket_2: 191200
Critical_ROB_Stalls_Percent_4_Bucket_3: 184444
Non-critical_ROB_Stalls_Percent_4_Bucket_3: 75899
Critical_ROB_Stalls_Percent_4_Bucket_4: 142318
Non-critical_ROB_Stalls_Percent_4_Bucket_4: 27755
Critical_ROB_Stalls_Percent_4_Bucket_5: 131755
Non-critical_ROB_Stalls_Percent_4_Bucket_5: 22549
Critical_ROB_Stalls_Percent_4_Bucket_6: 1042030
Non-critical_ROB_Stalls_Percent_4_Bucket_6: 64678
Critical_ROB_Stalls_Percent_5_Bucket_0: 262213
Non-critical_ROB_Stalls_Percent_5_Bucket_0: 245727
Critical_ROB_Stalls_Percent_5_Bucket_1: 351020
Non-critical_ROB_Stalls_Percent_5_Bucket_1: 260394
Critical_ROB_Stalls_Percent_5_Bucket_2: 283099
Non-critical_ROB_Stalls_Percent_5_Bucket_2: 145868
Critical_ROB_Stalls_Percent_5_Bucket_3: 201550
Non-critical_ROB_Stalls_Percent_5_Bucket_3: 58793
Critical_ROB_Stalls_Percent_5_Bucket_4: 148277
Non-critical_ROB_Stalls_Percent_5_Bucket_4: 21796
Critical_ROB_Stalls_Percent_5_Bucket_5: 135879
Non-critical_ROB_Stalls_Percent_5_Bucket_5: 18425
Critical_ROB_Stalls_Percent_5_Bucket_6: 1049721
Non-critical_ROB_Stalls_Percent_5_Bucket_6: 56987
Critical_ROB_Stalls_Percent_6_Bucket_0: 312156
Non-critical_ROB_Stalls_Percent_6_Bucket_0: 195784
Critical_ROB_Stalls_Percent_6_Bucket_1: 418725
Non-critical_ROB_Stalls_Percent_6_Bucket_1: 192689
Critical_ROB_Stalls_Percent_6_Bucket_2: 304900
Non-critical_ROB_Stalls_Percent_6_Bucket_2: 124067
Critical_ROB_Stalls_Percent_6_Bucket_3: 211321
Non-critical_ROB_Stalls_Percent_6_Bucket_3: 49022
Critical_ROB_Stalls_Percent_6_Bucket_4: 151390
Non-critical_ROB_Stalls_Percent_6_Bucket_4: 18683
Critical_ROB_Stalls_Percent_6_Bucket_5: 138860
Non-critical_ROB_Stalls_Percent_6_Bucket_5: 15444
Critical_ROB_Stalls_Percent_6_Bucket_6: 1055238
Non-critical_ROB_Stalls_Percent_6_Bucket_6: 51470
Critical_ROB_Stalls_Percent_7_Bucket_0: 354793
Non-critical_ROB_Stalls_Percent_7_Bucket_0: 153147
Critical_ROB_Stalls_Percent_7_Bucket_1: 460309
Non-critical_ROB_Stalls_Percent_7_Bucket_1: 151105
Critical_ROB_Stalls_Percent_7_Bucket_2: 354163
Non-critical_ROB_Stalls_Percent_7_Bucket_2: 74804
Critical_ROB_Stalls_Percent_7_Bucket_3: 224354
Non-critical_ROB_Stalls_Percent_7_Bucket_3: 35989
Critical_ROB_Stalls_Percent_7_Bucket_4: 156780
Non-critical_ROB_Stalls_Percent_7_Bucket_4: 13293
Critical_ROB_Stalls_Percent_7_Bucket_5: 140841
Non-critical_ROB_Stalls_Percent_7_Bucket_5: 13463
Critical_ROB_Stalls_Percent_7_Bucket_6: 1063572
Non-critical_ROB_Stalls_Percent_7_Bucket_6: 43136
Critical_ROB_Stalls_Percent_8_Bucket_0: 408364
Non-critical_ROB_Stalls_Percent_8_Bucket_0: 99576
Critical_ROB_Stalls_Percent_8_Bucket_1: 511749
Non-critical_ROB_Stalls_Percent_8_Bucket_1: 99665
Critical_ROB_Stalls_Percent_8_Bucket_2: 376309
Non-critical_ROB_Stalls_Percent_8_Bucket_2: 52658
Critical_ROB_Stalls_Percent_8_Bucket_3: 233481
Non-critical_ROB_Stalls_Percent_8_Bucket_3: 26862
Critical_ROB_Stalls_Percent_8_Bucket_4: 159886
Non-critical_ROB_Stalls_Percent_8_Bucket_4: 10187
Critical_ROB_Stalls_Percent_8_Bucket_5: 147042
Non-critical_ROB_Stalls_Percent_8_Bucket_5: 7262
Critical_ROB_Stalls_Percent_8_Bucket_6: 1079935
Non-critical_ROB_Stalls_Percent_8_Bucket_6: 26773
Average ROB occupancy Load Stall Begin: 184.5
Average ROB occupancy Load Stall End: 192.893
Min ROB occupancy Load Stall Begin: 1
Max ROB occupancy Load Stall Begin: 352
Min ROB occupancy Load Stall End: 1
Max ROB occupancy Load Stall End: 352
Average ROB occupancy Critical Load Stall Begin: -nan
Average ROB occupancy Critical Load Stall End: -nan
Min ROB occupancy Critical Load Stall Begin: 400
Max ROB occupancy Critical Load Stall Begin: 0
Min ROB occupancy Critical Load Stall End: 400
Max ROB occupancy Critical Load Stall End: 0
 ROB Load Stall Begin Bucket Count 0: 713842
 ROB Load Stall End Bucket Count 0: 507940
 ROB Critical Load Stall Begin Bucket Count 0: 0
 ROB Critical Load Stall End Bucket Count 0: 0
 ROB Load Stall Begin Bucket Count 1: 538488
 ROB Load Stall End Bucket Count 1: 611414
 ROB Critical Load Stall Begin Bucket Count 1: 0
 ROB Critical Load Stall End Bucket Count 1: 0
 ROB Load Stall Begin Bucket Count 2: 375856
 ROB Load Stall End Bucket Count 2: 428967
 ROB Critical Load Stall Begin Bucket Count 2: 0
 ROB Critical Load Stall End Bucket Count 2: 0
 ROB Load Stall Begin Bucket Count 3: 220503
 ROB Load Stall End Bucket Count 3: 260343
 ROB Critical Load Stall Begin Bucket Count 3: 0
 ROB Critical Load Stall End Bucket Count 3: 0
 ROB Load Stall Begin Bucket Count 4: 157957
 ROB Load Stall End Bucket Count 4: 170073
 ROB Critical Load Stall Begin Bucket Count 4: 0
 ROB Critical Load Stall End Bucket Count 4: 0
 ROB Load Stall Begin Bucket Count 5: 155170
 ROB Load Stall End Bucket Count 5: 154304
 ROB Critical Load Stall Begin Bucket Count 5: 0
 ROB Critical Load Stall End Bucket Count 5: 0
 ROB Load Stall Begin Bucket Count 6: 1077933
 ROB Load Stall End Bucket Count 6: 1106708
 ROB Critical Load Stall Begin Bucket Count 6: 0
 ROB Critical Load Stall End Bucket Count 6: 0
PIST Tag Read Accesses: 2789580
PIST Read Accesses: 1394790
PIST Tag Write Accesses: 2789580
PIST Write Accesses: 1394790
Criticality detector called times: 1763938
Max global_stall_cycles_count: 3754606
Threshold Modified: 1 times, factor: -1
Sturdy critical IP cache stats: 
 Unused entries: 0
CIC Tag Read Accesses: 0
CIC Read Accesses: 0
CIC Tag Write Accesses: 0
CIC Write Accesses: 0
Wobbly critical IP cache stats: 
 Unused entries: 117
CIC Tag Read Accesses: 92476450
CIC Read Accesses: 0
CIC Tag Write Accesses: 155
CIC Write Accesses: 0
ITLB TOTAL     ACCESS:   10350300  HIT:    9858552  MISS:     491748  HIT %:    95.2489  MISS %:    4.75105   MPKI: 9.83496
ITLB LOAD TRANSLATION ACCESS:    8399319  HIT:    8390215  MISS:       9104  HIT %:    99.8916  MISS %:    0.10839   MPKI: 0.18208
ITLB TRANSLATION FROM L1D PREFETCHER ACCESS:    1950981  HIT:    1468337  MISS:     482644  HIT %:    75.2615  MISS %:    24.7385   MPKI: 9.65288
ITLB PREFETCH  REQUESTED:          0  ISSUED:          0  USEFUL:     430906  USELESS:      51737
ITLB USEFUL LOAD PREFETCHES:     430906 PREFETCH ISSUED TO LOWER LEVEL:          0  ACCURACY: inf
ITLB TIMELY PREFETCHES:     430906 LATE PREFETCHES: 162 DROPPED PREFETCHES: 0
ITLB PREFETCHES SAME FILL-ORIGIN LEVEL: 0 DIFFERENT FILL-ORIGIN LEVEL: 0
ITLB AVERAGE MISS LATENCY: 20981 cycles
ITLB RQ	ACCESS:   14861532	FORWARD:          0	MERGED:    4462927	TO_CACHE:   10398605

DTLB TOTAL     ACCESS:   10880565  HIT:   10476642  MISS:     403923  HIT %:    96.2877  MISS %:    3.71233   MPKI: 8.07846
DTLB LOAD TRANSLATION ACCESS:   10880565  HIT:   10476642  MISS:     403923  HIT %:    96.2877  MISS %:    3.71233   MPKI: 8.07846
DTLB PREFETCH  REQUESTED:          0  ISSUED:          0  USEFUL:          0  USELESS:          0
DTLB USEFUL LOAD PREFETCHES:          0 PREFETCH ISSUED TO LOWER LEVEL:          0  ACCURACY: -nan
DTLB TIMELY PREFETCHES:          0 LATE PREFETCHES: 0 DROPPED PREFETCHES: 0
DTLB PREFETCHES SAME FILL-ORIGIN LEVEL: 0 DIFFERENT FILL-ORIGIN LEVEL: 0
DTLB AVERAGE MISS LATENCY: 16.329 cycles
DTLB RQ	ACCESS:   16202081	FORWARD:          0	MERGED:    5237250	TO_CACHE:   10964831

STLB TOTAL     ACCESS:    1452526  HIT:    1432195  MISS:      20331  HIT %:    98.6003  MISS %:     1.3997   MPKI: 0.40662
STLB LOAD TRANSLATION ACCESS:     412865  HIT:     392932  MISS:      19933  HIT %:     95.172  MISS %:    4.82797   MPKI: 0.39866
STLB TRANSLATION FROM L1D PREFETCHER ACCESS:    1039661  HIT:    1039263  MISS:        398  HIT %:    99.9617  MISS %:  0.0382817   MPKI: 0.00796
STLB PREFETCH  REQUESTED:          0  ISSUED:          0  USEFUL:        182  USELESS:        203
STLB USEFUL LOAD PREFETCHES:        182 PREFETCH ISSUED TO LOWER LEVEL:          0  ACCURACY: inf
STLB TIMELY PREFETCHES:        182 LATE PREFETCHES: 0 DROPPED PREFETCHES: 0
STLB PREFETCHES SAME FILL-ORIGIN LEVEL: 0 DIFFERENT FILL-ORIGIN LEVEL: 0
STLB AVERAGE MISS LATENCY: 151.581 cycles
STLB RQ	ACCESS:    1568690	FORWARD:          0	MERGED:     116164	TO_CACHE:    1452526

STLB Hit, L1D data hit: 0
STLB Hit, L2C data hit: 0
STLB Hit, LLC data hit: 0
STLB Hit, LLC data miss: 0
STLB STLB hints to L2: 0
L1D TOTAL     ACCESS:   14335319  HIT:   12458186  MISS:    1877133  HIT %:    86.9055  MISS %:    13.0945   MPKI: 37.5427
L1D LOAD      ACCESS:    7392183  HIT:    6881859  MISS:     510324  HIT %:    93.0964  MISS %:    6.90356   MPKI: 10.2065
L1D RFO       ACCESS:    6288873  HIT:    5296956  MISS:     991917  HIT %:    84.2274  MISS %:    15.7726   MPKI: 19.8383
L1D PREFETCH  ACCESS:     654263  HIT:     279371  MISS:     374892  HIT %:    42.7001  MISS %:    57.2999   MPKI: 7.49784
L1D PREFETCH  REQUESTED:    1349040  ISSUED:    1346068  USEFUL:     316588  USELESS:      58355
L1D USEFUL LOAD PREFETCHES:     316588 PREFETCH ISSUED TO LOWER LEVEL:     386790  ACCURACY: 81.8501
L1D TIMELY PREFETCHES:     316588 LATE PREFETCHES: 11897 DROPPED PREFETCHES: 0
L1D PREFETCHES SAME FILL-ORIGIN LEVEL: 386790 DIFFERENT FILL-ORIGIN LEVEL: 0
L1D AVERAGE MISS LATENCY: 341944 cycles
L1D RQ	ACCESS:   11076231	FORWARD:          0	MERGED:    3520089	TO_CACHE:    7432958
L1D WQ	ACCESS:    8864293	FORWARD:     123214	MERGED:      95170	TO_CACHE:    8769123
L1D PQ	ACCESS:     673049	FORWARD:          0	MERGED:          0	TO_CACHE:     673019

L1D UNIQUE REGIONS ACCESSED: 0
L1D REGIONS CONFLICTS: 0
L1D Cross Page Prefetch Requests: 0
L1D Same Page Prefetch Requests: 1869120
L1D ROI Sum of L1D PQ occupancy: 10670802
L1D PREFETCHES PUSHED FROM L2C: 0
L1I TOTAL     ACCESS:   14794068  HIT:   11632939  MISS:    3161129  HIT %:    78.6325  MISS %:    21.3675   MPKI: 63.2226
L1I LOAD      ACCESS:    9805083  HIT:    9788513  MISS:      16570  HIT %:     99.831  MISS %:   0.168994   MPKI: 0.3314
L1I PREFETCH  ACCESS:    4988985  HIT:    1844426  MISS:    3144559  HIT %:      36.97  MISS %:      63.03   MPKI: 62.8912
L1I PREFETCH  REQUESTED:    5240673  ISSUED:    5227792  USEFUL:    2631153  USELESS:     513430
L1I USEFUL LOAD PREFETCHES:    2631153 PREFETCH ISSUED TO LOWER LEVEL:    3150625  ACCURACY: 83.5121
L1I TIMELY PREFETCHES:    2631153 LATE PREFETCHES: 6063 DROPPED PREFETCHES: 0
L1I PREFETCHES SAME FILL-ORIGIN LEVEL: 3150625 DIFFERENT FILL-ORIGIN LEVEL: 0
L1I AVERAGE MISS LATENCY: 123732 cycles
L1I RQ	ACCESS:   14099747	FORWARD:          0	MERGED:    4291235	TO_CACHE:    9808512
L1I PQ	ACCESS:    5227792	FORWARD:          0	MERGED:     174772	TO_CACHE:    5053020

BTB TOTAL     ACCESS:    5300074  HIT:    5041527  MISS:     258547  HIT %:    95.1218  MISS %:    4.87818   MPKI: 5.17094
BTB BRANCH_DIRECT_JUMP	ACCESS:     445212  HIT:     443383  MISS:       1829
BTB BRANCH_INDIRECT	ACCESS:      50481  HIT:      50386  MISS:         95
BTB BRANCH_CONDITIONAL	ACCESS:    2966951  HIT:    2961198  MISS:       5753
BTB BRANCH_DIRECT_CALL	ACCESS:     758223  HIT:     754416  MISS:       3807
BTB BRANCH_INDIRECT_CALL	ACCESS:     160492  HIT:     130806  MISS:      29686
BTB BRANCH_RETURN	ACCESS:     918715  HIT:     701338  MISS:     217377
BTB BRANCH_OTHER ACCESS:          0  HIT:          0  MISS:          0

L2C TOTAL     ACCESS:    6228612  HIT:    4396729  MISS:    1831883  HIT %:    70.5892  MISS %:    29.4108   MPKI: 36.6377
L2C LOAD      ACCESS:     508916  HIT:     171117  MISS:     337799  HIT %:    33.6238  MISS %:    66.3762   MPKI: 6.75598
L2C DATA LOAD MPKI: 6.67862
L2C INSTRUCTION LOAD MPKI: 0.07736
L2C RFO       ACCESS:     991913  HIT:      39487  MISS:     952426  HIT %:    3.98089  MISS %:    96.0191   MPKI: 19.0485
L2C PREFETCH  ACCESS:    3537413  HIT:    3045288  MISS:     492125  HIT %:     86.088  MISS %:     13.912   MPKI: 9.8425
L2C DATA PREFETCH MPKI: 6.7598
L2C INSTRUCTION PREFETCH MPKI: 3.0827
L2C WRITEBACK ACCESS:    1168503  HIT:    1128206  MISS:      40297  HIT %:    96.5514  MISS %:     3.4486   MPKI: 0.80594
L2C LOAD TRANSLATION ACCESS:      21306  HIT:      12510  MISS:       8796  HIT %:    58.7159  MISS %:    41.2841   MPKI: 0.17592
L2C TRANSLATION FROM L1D PREFETCHER ACCESS:        561  HIT:        121  MISS:        440  HIT %:    21.5686  MISS %:    78.4314   MPKI: 0.0088
L2C PREFETCH  REQUESTED:          0  ISSUED:          0  USEFUL:       3277  USELESS:     489413
L2C USEFUL LOAD PREFETCHES:       3277 PREFETCH ISSUED TO LOWER LEVEL:     492125  ACCURACY: 0.665888
L2C TIMELY PREFETCHES:       3277 LATE PREFETCHES: 0 DROPPED PREFETCHES: 0
L2C PREFETCHES SAME FILL-ORIGIN LEVEL: 0 DIFFERENT FILL-ORIGIN LEVEL: 0
L2C AVERAGE MISS LATENCY: 167.679 cycles
L2C RQ	ACCESS:    1522717	FORWARD:          0	MERGED:          0	TO_CACHE:    1522696
L2C WQ	ACCESS:    1168503	FORWARD:         21	MERGED:          0	TO_CACHE:    1168503
L2C PQ	ACCESS:    3537415	FORWARD:          0	MERGED:          0	TO_CACHE:    3537415

L2C Instructions Evicting Data 145454
L2C Translations Evicting Data 8398
L2C Data Evicting Data 1474123
L2C Instructions Evicting Instructions 11798
L2C Translations Evicting Instructions 790
L2C Data Evicting Instructions 141963
L2C Instructions Evicting Translations 751
L2C Translations Evicting Translations 48
L2C Data Evicting Translations 8261
L2C Dense regions hint from L2: 0
PSCL5 TOTAL     ACCESS:      20331  HIT:      20331  MISS:          0  HIT %:        100  MISS %:          0   MPKI: 0
PSCL5 LOAD TRANSLATION ACCESS:      19933  HIT:      19933  MISS:          0  HIT %:        100  MISS %:          0   MPKI: 0
PSCL5 TRANSLATION FROM L1D PREFETCHER ACCESS:        398  HIT:        398  MISS:          0  HIT %:        100  MISS %:          0   MPKI: 0
PSCL5 PREFETCH  REQUESTED:          0  ISSUED:          0  USEFUL:          0  USELESS:          0
PSCL5 USEFUL LOAD PREFETCHES:          0 PREFETCH ISSUED TO LOWER LEVEL:          0  ACCURACY: -nan
PSCL5 TIMELY PREFETCHES:          0 LATE PREFETCHES: 0 DROPPED PREFETCHES: 0
PSCL5 PREFETCHES SAME FILL-ORIGIN LEVEL: 0 DIFFERENT FILL-ORIGIN LEVEL: 0

PSCL4 TOTAL     ACCESS:      19570  HIT:      19528  MISS:         42  HIT %:    99.7854  MISS %:   0.214614   MPKI: 0.00084
PSCL4 LOAD TRANSLATION ACCESS:      19185  HIT:      19143  MISS:         42  HIT %:    99.7811  MISS %:   0.218921   MPKI: 0.00084
PSCL4 TRANSLATION FROM L1D PREFETCHER ACCESS:        385  HIT:        385  MISS:          0  HIT %:        100  MISS %:          0   MPKI: 0
PSCL4 PREFETCH  REQUESTED:          0  ISSUED:          0  USEFUL:          0  USELESS:          0
PSCL4 USEFUL LOAD PREFETCHES:          0 PREFETCH ISSUED TO LOWER LEVEL:          0  ACCURACY: -nan
PSCL4 TIMELY PREFETCHES:          0 LATE PREFETCHES: 0 DROPPED PREFETCHES: 0
PSCL4 PREFETCHES SAME FILL-ORIGIN LEVEL: 0 DIFFERENT FILL-ORIGIN LEVEL: 0

PSCL3 TOTAL     ACCESS:      19931  HIT:      19889  MISS:         42  HIT %:    99.7893  MISS %:   0.210727   MPKI: 0.00084
PSCL3 LOAD TRANSLATION ACCESS:      19546  HIT:      19504  MISS:         42  HIT %:    99.7851  MISS %:   0.214878   MPKI: 0.00084
PSCL3 TRANSLATION FROM L1D PREFETCHER ACCESS:        385  HIT:        385  MISS:          0  HIT %:        100  MISS %:          0   MPKI: 0
PSCL3 PREFETCH  REQUESTED:          0  ISSUED:          0  USEFUL:          0  USELESS:          0
PSCL3 USEFUL LOAD PREFETCHES:          0 PREFETCH ISSUED TO LOWER LEVEL:          0  ACCURACY: -nan
PSCL3 TIMELY PREFETCHES:          0 LATE PREFETCHES: 0 DROPPED PREFETCHES: 0
PSCL3 PREFETCHES SAME FILL-ORIGIN LEVEL: 0 DIFFERENT FILL-ORIGIN LEVEL: 0

PSCL2 TOTAL     ACCESS:      20331  HIT:      18855  MISS:       1476  HIT %:    92.7402  MISS %:    7.25985   MPKI: 0.02952
PSCL2 LOAD TRANSLATION ACCESS:      20076  HIT:      18600  MISS:       1476  HIT %:    92.6479  MISS %:    7.35206   MPKI: 0.02952
PSCL2 TRANSLATION FROM L1D PREFETCHER ACCESS:        255  HIT:        255  MISS:          0  HIT %:        100  MISS %:          0   MPKI: 0
PSCL2 PREFETCH  REQUESTED:          0  ISSUED:          0  USEFUL:          0  USELESS:          0
PSCL2 USEFUL LOAD PREFETCHES:          0 PREFETCH ISSUED TO LOWER LEVEL:          0  ACCURACY: -nan
PSCL2 TIMELY PREFETCHES:          0 LATE PREFETCHES: 0 DROPPED PREFETCHES: 0
PSCL2 PREFETCHES SAME FILL-ORIGIN LEVEL: 0 DIFFERENT FILL-ORIGIN LEVEL: 0

LLC TOTAL     ACCESS:    2879286  HIT:    1301725  MISS:    1577561  HIT %:      45.21  MISS %:      54.79   MPKI: 31.5512
LLC LOAD      ACCESS:     337799  HIT:     282398  MISS:      55401  HIT %:    83.5994  MISS %:    16.4006   MPKI: 1.10802
LLC RFO       ACCESS:     952425  HIT:     237090  MISS:     715335  HIT %:    24.8933  MISS %:    75.1067   MPKI: 14.3067
LLC PREFETCH  ACCESS:     492125  HIT:     185019  MISS:     307106  HIT %:    37.5959  MISS %:    62.4041   MPKI: 6.14212
LLC WRITEBACK ACCESS:    1087701  HIT:     593544  MISS:     494157  HIT %:    54.5687  MISS %:    45.4313   MPKI: 9.88314
LLC LOAD TRANSLATION ACCESS:       8796  HIT:       3504  MISS:       5292  HIT %:    39.8363  MISS %:    60.1637   MPKI: 0.10584
LLC TRANSLATION FROM L1D PREFETCHER ACCESS:        440  HIT:        170  MISS:        270  HIT %:    38.6364  MISS %:    61.3636   MPKI: 0.0054
LLC PREFETCH  REQUESTED:          0  ISSUED:          0  USEFUL:       1011  USELESS:     312072
LLC USEFUL LOAD PREFETCHES:       1011 PREFETCH ISSUED TO LOWER LEVEL:     307106  ACCURACY: 0.329202
LLC TIMELY PREFETCHES:       1011 LATE PREFETCHES: 0 DROPPED PREFETCHES: 0
LLC PREFETCHES SAME FILL-ORIGIN LEVEL: 0 DIFFERENT FILL-ORIGIN LEVEL: 0
LLC AVERAGE MISS LATENCY: 159.03 cycles
LLC RQ	ACCESS:    1299461	FORWARD:          0	MERGED:          0	TO_CACHE:    1299460
LLC WQ	ACCESS:    1087701	FORWARD:          1	MERGED:          0	TO_CACHE:    1087701
LLC PQ	ACCESS:     492125	FORWARD:          0	MERGED:          0	TO_CACHE:     492125

LLC Dense regions hint to LLC: 0

RAW hits: 1389381
Loads Generated: 12465612
Loads sent to L1D: 11076231
Stores Generated: 8864282
Stores sent to L1D: 8864293
Major fault: 0 Minor fault: 22424
Allocated PAGES: 22424
I-Shadow cache 408 bytes
Touched + WorthPF tables 6144 bytes 
MMA filter 174 bytes 
FNL filter 272 bytes 
TOTAL PREFETCHER STORAGE SIZE: 25174 bytes
CPU 0 L1I next line prefetcher final stats

stream: 
stream:times selected: 3911537
stream:pref_filled: 977837
stream:pref_useful: 645837
stream:pref_late: 14431
stream:misses: 27464
stream:misses_by_poll: 0

CS: 
CS:times selected: 3436765
CS:pref_filled: 7036
CS:pref_useful: 6789
CS:pref_late: 956
CS:misses: 19053
CS:misses_by_poll: 2

CPLX: 
CPLX:times selected: 468071
CPLX:pref_filled: 20611
CPLX:pref_useful: 1263
CPLX:pref_late: 252
CPLX:misses: 80716
CPLX:misses_by_poll: 3

NL_L1: 
NL:times selected: 1737
NL:pref_filled: 445
NL:pref_useful: 21
NL:pref_late: 9
NL:misses: 729
NL:misses_by_poll: 0

total selections: 7818110
total_filled: 374892
total_useful: 316588
total_late: 16444
total_polluted: 5
total_misses_after_warmup: 551100
conflicts: 2397480
Degree Incremented Times: 45587
Degree Decremented Times: 46789

L1 IP Table Write Accesses: 4876884
L1 IP Table Read Accesses: 2479404
L1 RST Write Accesses: 1948362
L1 RST Read Accesses: 3896724
L1 CSPT Write Accesses: 1948362
L1 CSPT Read Accesses: 2175163
L1 RR Filter Tag Write Accesses: 676021
L1 RR Filter Tag Read Accesses: 371076072
L1 IP Table Tag Write Accesses: 7432959
L1 IP Table Tag Read Accesses: 7432959
L1 RST Tag Write Accesses: 0
L1 RST Tag Read Accesses: 17604843
L1 RR Filter Write Accesses: 0
L1 RR Filter Read Accesses: 12686249
test: 225131

DRAM Statistics
 CHANNEL 0
 RQ ROW_BUFFER_HIT:     473587  ROW_BUFFER_MISS:     609718
 DBUS_CONGESTED:        510
 WQ ROW_BUFFER_HIT:     166227  ROW_BUFFER_MISS:     569671  FULL:      15854

 AVG_CONGESTED_CYCLE: 3
 All warmup complete: 2
Channel 0 Bank busy for read cycles: 0
Channel 0 Bank busy for write cycles: 0
Channel 0
Rank 0
0banks busy for read cycles: 27112735
0banks busy for write cycles: 49027
1banks busy for read cycles: 12123293
1banks busy for write cycles: 7038932
2banks busy for read cycles: 8891397
2banks busy for write cycles: 3032087
3banks busy for read cycles: 3964056
3banks busy for write cycles: 1537503
4banks busy for read cycles: 3191392
4banks busy for write cycles: 1103151
5banks busy for read cycles: 1208536
5banks busy for write cycles: 988169
6banks busy for read cycles: 1170291
6banks busy for write cycles: 977517
7banks busy for read cycles: 1638315
7banks busy for write cycles: 1653811
8banks busy for read cycles: 4785717
8banks busy for write cycles: 10045299

CPU 0 Branch Prediction Accuracy: 99.8303% MPKI: 0.27836 Average ROB Occupancy at Mispredict: 111.017
Branch types
NOT_BRANCH: 41798375 83.5967%
BRANCH_DIRECT_JUMP: 445212 0.890424%
BRANCH_INDIRECT: 50481 0.100962%
BRANCH_CONDITIONAL: 5868223 11.7364%
BRANCH_DIRECT_CALL: 758223 1.51645%
BRANCH_INDIRECT_CALL: 160492 0.320984%
BRANCH_RETURN: 918715 1.83743%
BRANCH_OTHER: 0 0%

DRAM PAGES: 1048576
Allocated PAGES: 22424
