
*** ChampSim Multicore Out-of-Order Simulator ***

Warmup Instructions: 50000000
Simulation Instructions: 50000000
Number of CPUs: 1
LLC sets: 2048
LLC ways: 16
Off-chip DRAM Size: 4096 MB Channels: 1 Width: 64-bit Data Rate: 6400 MT/s
CPU 0 runs ../IPC-traces//server_035.champsimtrace.xz
.xz
BTB has LRU replacement policy
ITLB has LRU replacement policy
DTLB has LRU replacement policy
STLB has LRU replacement policy
CPU 0 L1I next line prefetcher
L1I has LRU replacement policy
L1D has LRU replacement policy
Bingo PHT WAYS: 16 and PHT_SIZE: 16384
Initialize SRRIP state for L2C
Initialize DRRIP state for LLC
Heartbeat CPU 0 instructions: 10000001 cycles: 2763639 heartbeat IPC: 3.61842 cumulative IPC: 3.61842 (Simulation time: 0 hr 3 min 22 sec) 
Heartbeat CPU 0 instructions: 20000002 cycles: 5523449 heartbeat IPC: 3.62344 cumulative IPC: 3.62093 (Simulation time: 0 hr 6 min 1 sec) 
Heartbeat CPU 0 instructions: 30000003 cycles: 8283801 heartbeat IPC: 3.62273 cumulative IPC: 3.62153 (Simulation time: 0 hr 8 min 37 sec) 
Heartbeat CPU 0 instructions: 40000003 cycles: 11044075 heartbeat IPC: 3.62283 cumulative IPC: 3.62185 (Simulation time: 0 hr 11 min 1 sec) 
Heartbeat CPU 0 instructions: 50000003 cycles: 13802197 heartbeat IPC: 3.62566 cumulative IPC: 3.62261 (Simulation time: 0 hr 13 min 7 sec) 

Warmup complete CPU 0 instructions: 50000003 cycles: 13802197 (Simulation time: 0 hr 13 min 7 sec) 

Heartbeat CPU 0 instructions: 60000001 cycles: 28909618 heartbeat IPC: 0.661926 cumulative IPC: 0.661926 (Simulation time: 0 hr 15 min 44 sec) 
Heartbeat CPU 0 instructions: 70000003 cycles: 43898346 heartbeat IPC: 0.667168 cumulative IPC: 0.664537 (Simulation time: 0 hr 18 min 18 sec) 
Heartbeat CPU 0 instructions: 80000003 cycles: 58968873 heartbeat IPC: 0.663547 cumulative IPC: 0.664207 (Simulation time: 0 hr 20 min 52 sec) 
Heartbeat CPU 0 instructions: 90000001 cycles: 73733019 heartbeat IPC: 0.677316 cumulative IPC: 0.667436 (Simulation time: 0 hr 23 min 21 sec) 
Heartbeat CPU 0 instructions: 100000002 cycles: 88808096 heartbeat IPC: 0.663347 cumulative IPC: 0.666614 (Simulation time: 0 hr 26 min 13 sec) 
Finished CPU 0 instructions: 50000003 cycles: 75005900 cumulative IPC: 0.666614 (Simulation time: 0 hr 26 min 13 sec) 

ChampSim completed all CPUs

Region of Interest Statistics

CPU 0 cumulative IPC: 0.666614 instructions: 50000003 cycles: 75005900

CPU 0 Average Load ROB stall cycles: 1.90433e+07
CPU 0 Fraction of times ROB stalled by Loads: 36.9996
CPU 0 Percentage of Load stall cycles in Total stall cycles: 2.24311e+08
Issued all: 27561483
Issued LT all: 21796340
rob_not_full_when_issued_lt_all: 20196186
Issued LT one: 16680028
rob_not_full_when_issued_lt_one: 15147447
FVP critical_dynamic_instances_0: 942580
FVP unique_critical_ips_0: 2989
 Total stall cycles: 62888979
 Total load stall cycles: 141066998623867
Unique Load IPs: 8448
CPU 0 NUM of IPS identified critical: 0
CPU 0 Num of Load IPs stalling ROB: 0
Threshold modification factor: 0
Trouble in retire width: -nan
MaC = Marked as critical.
lt_50_percent_before_Mac: 0
gt_90_percent_before_Mac: 0
gt_75_percent_before_Mac: 0
gt_50_percent_before_Mac: 0
stall_proportion_bin_same_before_after: 0
stall_proportion_bin_lower_before_after: 0
stall_proportion_bin_upper_before_after: 0
average_stall_proportion_before: -nan
average_stall_proportion_after: -nan
Critical IP stalls, total frequency: 0
Non-critical IP stalls, total frequency: 0
Total Freq all stalling IPs: 0
Critical_IP_Detector_Accuracy_70: 0.00033456
Critical_IP_Detector_Accuracy_80: 0.00033456
Critical_IP_Detector_Accuracy_90: 0.00033456
Critical_IP_Detector_Coverage_70: 1
Critical_IP_Detector_Coverage_80: 1
Critical_IP_Detector_Coverage_90: 1
stat_90_percent_critical_ip_stalls_freq: 34646
stat_90_percent_non_critical_ip_stalls_freq: 18446744073709516970
AVERAGE_ROB_Occupancy_90_Percent_Critical_IP_Stalls: 17.7825
AVERAGE_ROB_Occupancy_90_Percent_Non_Critical_IP_Stalls: 9.21695e-12
Critical_IP_ROB_Stalls_Bucket_0: 0
Non-critical_IP_ROB_Stalls_Bucket_0: 1455272
Critical_IP_ROB_Stalls_Bucket_1: 0
Non-critical_IP_ROB_Stalls_Bucket_1: 771626
Critical_IP_ROB_Stalls_Bucket_2: 0
Non-critical_IP_ROB_Stalls_Bucket_2: 333729
Critical_IP_ROB_Stalls_Bucket_3: 0
Non-critical_IP_ROB_Stalls_Bucket_3: 118084
Critical_IP_ROB_Stalls_Bucket_4: 0
Non-critical_IP_ROB_Stalls_Bucket_4: 33179
Critical_IP_ROB_Stalls_Bucket_5: 0
Non-critical_IP_ROB_Stalls_Bucket_5: 8133
Critical_IP_ROB_Stalls_Bucket_6: 0
Non-critical_IP_ROB_Stalls_Bucket_6: 20791
0 => IPs accounting for >50 percent of stalls, 1 => 55, 2 => 60, 3 => 65 and so on till 90.
percent50: inf num IPs:  1
percent55: inf num IPs: 1
percent60: inf num IPs: 1
percent65: inf num IPs: 1
percent70: inf num IPs: 1
percent75: inf num IPs: 1
percent80: inf num IPs: 1
percent85: inf num IPs: 1
percent90: inf num IPs: 1
Critical_ROB_Stalls_Percent_0_Bucket_0: 34293
Non-critical_ROB_Stalls_Percent_0_Bucket_0: 1420979
Critical_ROB_Stalls_Percent_0_Bucket_1: 345
Non-critical_ROB_Stalls_Percent_0_Bucket_1: 771281
Critical_ROB_Stalls_Percent_0_Bucket_2: 2
Non-critical_ROB_Stalls_Percent_0_Bucket_2: 333727
Critical_ROB_Stalls_Percent_0_Bucket_3: 6
Non-critical_ROB_Stalls_Percent_0_Bucket_3: 118078
Critical_ROB_Stalls_Percent_0_Bucket_4: 0
Non-critical_ROB_Stalls_Percent_0_Bucket_4: 33179
Critical_ROB_Stalls_Percent_0_Bucket_5: 0
Non-critical_ROB_Stalls_Percent_0_Bucket_5: 8133
Critical_ROB_Stalls_Percent_0_Bucket_6: 0
Non-critical_ROB_Stalls_Percent_0_Bucket_6: 20791
Critical_ROB_Stalls_Percent_1_Bucket_0: 34293
Non-critical_ROB_Stalls_Percent_1_Bucket_0: 1420979
Critical_ROB_Stalls_Percent_1_Bucket_1: 345
Non-critical_ROB_Stalls_Percent_1_Bucket_1: 771281
Critical_ROB_Stalls_Percent_1_Bucket_2: 2
Non-critical_ROB_Stalls_Percent_1_Bucket_2: 333727
Critical_ROB_Stalls_Percent_1_Bucket_3: 6
Non-critical_ROB_Stalls_Percent_1_Bucket_3: 118078
Critical_ROB_Stalls_Percent_1_Bucket_4: 0
Non-critical_ROB_Stalls_Percent_1_Bucket_4: 33179
Critical_ROB_Stalls_Percent_1_Bucket_5: 0
Non-critical_ROB_Stalls_Percent_1_Bucket_5: 8133
Critical_ROB_Stalls_Percent_1_Bucket_6: 0
Non-critical_ROB_Stalls_Percent_1_Bucket_6: 20791
Critical_ROB_Stalls_Percent_2_Bucket_0: 34293
Non-critical_ROB_Stalls_Percent_2_Bucket_0: 1420979
Critical_ROB_Stalls_Percent_2_Bucket_1: 345
Non-critical_ROB_Stalls_Percent_2_Bucket_1: 771281
Critical_ROB_Stalls_Percent_2_Bucket_2: 2
Non-critical_ROB_Stalls_Percent_2_Bucket_2: 333727
Critical_ROB_Stalls_Percent_2_Bucket_3: 6
Non-critical_ROB_Stalls_Percent_2_Bucket_3: 118078
Critical_ROB_Stalls_Percent_2_Bucket_4: 0
Non-critical_ROB_Stalls_Percent_2_Bucket_4: 33179
Critical_ROB_Stalls_Percent_2_Bucket_5: 0
Non-critical_ROB_Stalls_Percent_2_Bucket_5: 8133
Critical_ROB_Stalls_Percent_2_Bucket_6: 0
Non-critical_ROB_Stalls_Percent_2_Bucket_6: 20791
Critical_ROB_Stalls_Percent_3_Bucket_0: 34293
Non-critical_ROB_Stalls_Percent_3_Bucket_0: 1420979
Critical_ROB_Stalls_Percent_3_Bucket_1: 345
Non-critical_ROB_Stalls_Percent_3_Bucket_1: 771281
Critical_ROB_Stalls_Percent_3_Bucket_2: 2
Non-critical_ROB_Stalls_Percent_3_Bucket_2: 333727
Critical_ROB_Stalls_Percent_3_Bucket_3: 6
Non-critical_ROB_Stalls_Percent_3_Bucket_3: 118078
Critical_ROB_Stalls_Percent_3_Bucket_4: 0
Non-critical_ROB_Stalls_Percent_3_Bucket_4: 33179
Critical_ROB_Stalls_Percent_3_Bucket_5: 0
Non-critical_ROB_Stalls_Percent_3_Bucket_5: 8133
Critical_ROB_Stalls_Percent_3_Bucket_6: 0
Non-critical_ROB_Stalls_Percent_3_Bucket_6: 20791
Critical_ROB_Stalls_Percent_4_Bucket_0: 34293
Non-critical_ROB_Stalls_Percent_4_Bucket_0: 1420979
Critical_ROB_Stalls_Percent_4_Bucket_1: 345
Non-critical_ROB_Stalls_Percent_4_Bucket_1: 771281
Critical_ROB_Stalls_Percent_4_Bucket_2: 2
Non-critical_ROB_Stalls_Percent_4_Bucket_2: 333727
Critical_ROB_Stalls_Percent_4_Bucket_3: 6
Non-critical_ROB_Stalls_Percent_4_Bucket_3: 118078
Critical_ROB_Stalls_Percent_4_Bucket_4: 0
Non-critical_ROB_Stalls_Percent_4_Bucket_4: 33179
Critical_ROB_Stalls_Percent_4_Bucket_5: 0
Non-critical_ROB_Stalls_Percent_4_Bucket_5: 8133
Critical_ROB_Stalls_Percent_4_Bucket_6: 0
Non-critical_ROB_Stalls_Percent_4_Bucket_6: 20791
Critical_ROB_Stalls_Percent_5_Bucket_0: 34293
Non-critical_ROB_Stalls_Percent_5_Bucket_0: 1420979
Critical_ROB_Stalls_Percent_5_Bucket_1: 345
Non-critical_ROB_Stalls_Percent_5_Bucket_1: 771281
Critical_ROB_Stalls_Percent_5_Bucket_2: 2
Non-critical_ROB_Stalls_Percent_5_Bucket_2: 333727
Critical_ROB_Stalls_Percent_5_Bucket_3: 6
Non-critical_ROB_Stalls_Percent_5_Bucket_3: 118078
Critical_ROB_Stalls_Percent_5_Bucket_4: 0
Non-critical_ROB_Stalls_Percent_5_Bucket_4: 33179
Critical_ROB_Stalls_Percent_5_Bucket_5: 0
Non-critical_ROB_Stalls_Percent_5_Bucket_5: 8133
Critical_ROB_Stalls_Percent_5_Bucket_6: 0
Non-critical_ROB_Stalls_Percent_5_Bucket_6: 20791
Critical_ROB_Stalls_Percent_6_Bucket_0: 34293
Non-critical_ROB_Stalls_Percent_6_Bucket_0: 1420979
Critical_ROB_Stalls_Percent_6_Bucket_1: 345
Non-critical_ROB_Stalls_Percent_6_Bucket_1: 771281
Critical_ROB_Stalls_Percent_6_Bucket_2: 2
Non-critical_ROB_Stalls_Percent_6_Bucket_2: 333727
Critical_ROB_Stalls_Percent_6_Bucket_3: 6
Non-critical_ROB_Stalls_Percent_6_Bucket_3: 118078
Critical_ROB_Stalls_Percent_6_Bucket_4: 0
Non-critical_ROB_Stalls_Percent_6_Bucket_4: 33179
Critical_ROB_Stalls_Percent_6_Bucket_5: 0
Non-critical_ROB_Stalls_Percent_6_Bucket_5: 8133
Critical_ROB_Stalls_Percent_6_Bucket_6: 0
Non-critical_ROB_Stalls_Percent_6_Bucket_6: 20791
Critical_ROB_Stalls_Percent_7_Bucket_0: 34293
Non-critical_ROB_Stalls_Percent_7_Bucket_0: 1420979
Critical_ROB_Stalls_Percent_7_Bucket_1: 345
Non-critical_ROB_Stalls_Percent_7_Bucket_1: 771281
Critical_ROB_Stalls_Percent_7_Bucket_2: 2
Non-critical_ROB_Stalls_Percent_7_Bucket_2: 333727
Critical_ROB_Stalls_Percent_7_Bucket_3: 6
Non-critical_ROB_Stalls_Percent_7_Bucket_3: 118078
Critical_ROB_Stalls_Percent_7_Bucket_4: 0
Non-critical_ROB_Stalls_Percent_7_Bucket_4: 33179
Critical_ROB_Stalls_Percent_7_Bucket_5: 0
Non-critical_ROB_Stalls_Percent_7_Bucket_5: 8133
Critical_ROB_Stalls_Percent_7_Bucket_6: 0
Non-critical_ROB_Stalls_Percent_7_Bucket_6: 20791
Critical_ROB_Stalls_Percent_8_Bucket_0: 34293
Non-critical_ROB_Stalls_Percent_8_Bucket_0: 1420979
Critical_ROB_Stalls_Percent_8_Bucket_1: 345
Non-critical_ROB_Stalls_Percent_8_Bucket_1: 771281
Critical_ROB_Stalls_Percent_8_Bucket_2: 2
Non-critical_ROB_Stalls_Percent_8_Bucket_2: 333727
Critical_ROB_Stalls_Percent_8_Bucket_3: 6
Non-critical_ROB_Stalls_Percent_8_Bucket_3: 118078
Critical_ROB_Stalls_Percent_8_Bucket_4: 0
Non-critical_ROB_Stalls_Percent_8_Bucket_4: 33179
Critical_ROB_Stalls_Percent_8_Bucket_5: 0
Non-critical_ROB_Stalls_Percent_8_Bucket_5: 8133
Critical_ROB_Stalls_Percent_8_Bucket_6: 0
Non-critical_ROB_Stalls_Percent_8_Bucket_6: 20791
Average ROB occupancy Load Stall Begin: 51.3397
Average ROB occupancy Load Stall End: 62.2584
Min ROB occupancy Load Stall Begin: 1
Max ROB occupancy Load Stall Begin: 352
Min ROB occupancy Load Stall End: 1
Max ROB occupancy Load Stall End: 352
Average ROB occupancy Critical Load Stall Begin: -nan
Average ROB occupancy Critical Load Stall End: -nan
Min ROB occupancy Critical Load Stall Begin: 400
Max ROB occupancy Critical Load Stall Begin: 0
Min ROB occupancy Critical Load Stall End: 400
Max ROB occupancy Critical Load Stall End: 0
 ROB Load Stall Begin Bucket Count 0: 1740346
 ROB Load Stall End Bucket Count 0: 1455272
 ROB Critical Load Stall Begin Bucket Count 0: 0
 ROB Critical Load Stall End Bucket Count 0: 0
 ROB Load Stall Begin Bucket Count 1: 624126
 ROB Load Stall End Bucket Count 1: 771626
 ROB Critical Load Stall Begin Bucket Count 1: 0
 ROB Critical Load Stall End Bucket Count 1: 0
 ROB Load Stall Begin Bucket Count 2: 257571
 ROB Load Stall End Bucket Count 2: 333729
 ROB Critical Load Stall Begin Bucket Count 2: 0
 ROB Critical Load Stall End Bucket Count 2: 0
 ROB Load Stall Begin Bucket Count 3: 75957
 ROB Load Stall End Bucket Count 3: 118084
 ROB Critical Load Stall Begin Bucket Count 3: 0
 ROB Critical Load Stall End Bucket Count 3: 0
 ROB Load Stall Begin Bucket Count 4: 18863
 ROB Load Stall End Bucket Count 4: 33179
 ROB Critical Load Stall Begin Bucket Count 4: 0
 ROB Critical Load Stall End Bucket Count 4: 0
 ROB Load Stall Begin Bucket Count 5: 5323
 ROB Load Stall End Bucket Count 5: 8133
 ROB Critical Load Stall Begin Bucket Count 5: 0
 ROB Critical Load Stall End Bucket Count 5: 0
 ROB Load Stall Begin Bucket Count 6: 18628
 ROB Load Stall End Bucket Count 6: 20791
 ROB Critical Load Stall Begin Bucket Count 6: 0
 ROB Critical Load Stall End Bucket Count 6: 0
PIST Tag Read Accesses: 0
PIST Read Accesses: 0
PIST Tag Write Accesses: 0
PIST Write Accesses: 0
Criticality detector called times: 0
Max global_stall_cycles_count: 0
Threshold Modified: 0 times, factor: 0
ITLB TOTAL     ACCESS:   10482306  HIT:    9878157  MISS:     604149  HIT %:    94.2365  MISS %:    5.76351   MPKI: 12.083
ITLB LOAD TRANSLATION ACCESS:    8281793  HIT:    8258474  MISS:      23319  HIT %:    99.7184  MISS %:   0.281569   MPKI: 0.46638
ITLB TRANSLATION FROM L1D PREFETCHER ACCESS:    2200513  HIT:    1619683  MISS:     580830  HIT %:    73.6048  MISS %:    26.3952   MPKI: 11.6166
ITLB PREFETCH  REQUESTED:          0  ISSUED:          0  USEFUL:     515748  USELESS:      65079
ITLB USEFUL LOAD PREFETCHES:     515748 PREFETCH ISSUED TO LOWER LEVEL:          0  ACCURACY: inf
ITLB TIMELY PREFETCHES:     515748 LATE PREFETCHES: 768 DROPPED PREFETCHES: 1
ITLB PREFETCHES SAME FILL-ORIGIN LEVEL: 0 DIFFERENT FILL-ORIGIN LEVEL: 0
ITLB AVERAGE MISS LATENCY: 54728.3 cycles
ITLB RQ	ACCESS:   15817088	FORWARD:          0	MERGED:    5296305	TO_CACHE:   10520783

DTLB TOTAL     ACCESS:    9362965  HIT:    8914928  MISS:     448037  HIT %:    95.2148  MISS %:     4.7852   MPKI: 8.96074
DTLB LOAD TRANSLATION ACCESS:    9362965  HIT:    8914928  MISS:     448037  HIT %:    95.2148  MISS %:     4.7852   MPKI: 8.96074
DTLB PREFETCH  REQUESTED:          0  ISSUED:          0  USEFUL:          0  USELESS:          0
DTLB USEFUL LOAD PREFETCHES:          0 PREFETCH ISSUED TO LOWER LEVEL:          0  ACCURACY: -nan
DTLB TIMELY PREFETCHES:          0 LATE PREFETCHES: 0 DROPPED PREFETCHES: 0
DTLB PREFETCHES SAME FILL-ORIGIN LEVEL: 0 DIFFERENT FILL-ORIGIN LEVEL: 0
DTLB AVERAGE MISS LATENCY: 10.2402 cycles
DTLB RQ	ACCESS:   13309060	FORWARD:          0	MERGED:    3928883	TO_CACHE:    9380177

STLB TOTAL     ACCESS:    1052186  HIT:    1042395  MISS:       9791  HIT %:    99.0695  MISS %:   0.930539   MPKI: 0.19582
STLB LOAD TRANSLATION ACCESS:     470588  HIT:     461089  MISS:       9499  HIT %:    97.9815  MISS %:    2.01854   MPKI: 0.18998
STLB TRANSLATION FROM L1D PREFETCHER ACCESS:     581598  HIT:     581306  MISS:        292  HIT %:    99.9498  MISS %:  0.0502065   MPKI: 0.00584
STLB PREFETCH  REQUESTED:          0  ISSUED:          0  USEFUL:        229  USELESS:         59
STLB USEFUL LOAD PREFETCHES:        229 PREFETCH ISSUED TO LOWER LEVEL:          0  ACCURACY: inf
STLB TIMELY PREFETCHES:        229 LATE PREFETCHES: 0 DROPPED PREFETCHES: 1
STLB PREFETCHES SAME FILL-ORIGIN LEVEL: 0 DIFFERENT FILL-ORIGIN LEVEL: 0
STLB AVERAGE MISS LATENCY: 62.7838 cycles
STLB RQ	ACCESS:    1052187	FORWARD:          0	MERGED:          0	TO_CACHE:    1052187

STLB Hit, L1D data hit: 0
STLB Hit, L2C data hit: 0
STLB Hit, LLC data hit: 0
STLB Hit, LLC data miss: 0
STLB STLB hints to L2: 0
L1D TOTAL     ACCESS:   13160995  HIT:   12519869  MISS:     641126  HIT %:    95.1286  MISS %:    4.87141   MPKI: 12.8225
L1D LOAD      ACCESS:    6910800  HIT:    6364492  MISS:     546308  HIT %:    92.0949  MISS %:    7.90513   MPKI: 10.9262
L1D RFO       ACCESS:    6250195  HIT:    6155377  MISS:      94818  HIT %:     98.483  MISS %:    1.51704   MPKI: 1.89636
L1D PREFETCH  REQUESTED:          0  ISSUED:          0  USEFUL:          0  USELESS:          0
L1D USEFUL LOAD PREFETCHES:          0 PREFETCH ISSUED TO LOWER LEVEL:          0  ACCURACY: -nan
L1D TIMELY PREFETCHES:          0 LATE PREFETCHES: 0 DROPPED PREFETCHES: 0
L1D PREFETCHES SAME FILL-ORIGIN LEVEL: 0 DIFFERENT FILL-ORIGIN LEVEL: 0
L1D AVERAGE MISS LATENCY: 64.7155 cycles
L1D RQ	ACCESS:   10476100	FORWARD:          0	MERGED:    3374074	TO_CACHE:    6941890
L1D WQ	ACCESS:    6507513	FORWARD:     160136	MERGED:     140343	TO_CACHE:    6367170

L1D UNIQUE REGIONS ACCESSED: 0
L1D REGIONS CONFLICTS: 0
L1D Cross Page Prefetch Requests: 0
L1D Same Page Prefetch Requests: 0
L1D ROI Sum of L1D PQ occupancy: 0
L1D PREFETCHES PUSHED FROM L2C: 0
L1I TOTAL     ACCESS:   15730835  HIT:   11380543  MISS:    4350292  HIT %:    72.3454  MISS %:    27.6546   MPKI: 87.0058
L1I LOAD      ACCESS:    9770046  HIT:    9740395  MISS:      29651  HIT %:    99.6965  MISS %:   0.303489   MPKI: 0.59302
L1I PREFETCH  ACCESS:    5960789  HIT:    1640148  MISS:    4320641  HIT %:    27.5156  MISS %:    72.4844   MPKI: 86.4128
L1I PREFETCH  REQUESTED:    6268257  ISSUED:    6246651  USEFUL:    3424613  USELESS:     895985
L1I USEFUL LOAD PREFETCHES:    3424613 PREFETCH ISSUED TO LOWER LEVEL:    4337063  ACCURACY: 78.9616
L1I TIMELY PREFETCHES:    3424613 LATE PREFETCHES: 16162 DROPPED PREFETCHES: 1
L1I PREFETCHES SAME FILL-ORIGIN LEVEL: 4337063 DIFFERENT FILL-ORIGIN LEVEL: 0
L1I AVERAGE MISS LATENCY: 188934 cycles
L1I RQ	ACCESS:   14201489	FORWARD:          0	MERGED:    4428573	TO_CACHE:    9772916
L1I PQ	ACCESS:    6246651	FORWARD:          0	MERGED:     202479	TO_CACHE:    6044172

BTB TOTAL     ACCESS:    6352892  HIT:    5366352  MISS:     986540  HIT %:     84.471  MISS %:     15.529   MPKI: 19.7308
BTB BRANCH_DIRECT_JUMP	ACCESS:     771899  HIT:     694689  MISS:      77210
BTB BRANCH_INDIRECT	ACCESS:     108179  HIT:      73521  MISS:      34658
BTB BRANCH_CONDITIONAL	ACCESS:    2927570  HIT:    2714481  MISS:     213089
BTB BRANCH_DIRECT_CALL	ACCESS:    1060892  HIT:     946633  MISS:     114259
BTB BRANCH_INDIRECT_CALL	ACCESS:     211719  HIT:     145244  MISS:      66475
BTB BRANCH_RETURN	ACCESS:    1272633  HIT:     791784  MISS:     480849
BTB BRANCH_OTHER ACCESS:          0  HIT:          0  MISS:          0

L2C TOTAL     ACCESS:    5252746  HIT:    5030827  MISS:     221919  HIT %:    95.7752  MISS %:    4.22482   MPKI: 4.43838
L2C LOAD      ACCESS:     559768  HIT:     401262  MISS:     158506  HIT %:    71.6836  MISS %:    28.3164   MPKI: 3.17012
L2C DATA LOAD MPKI: 3.14322
L2C INSTRUCTION LOAD MPKI: 0.0269
L2C RFO       ACCESS:      94812  HIT:      67693  MISS:      27119  HIT %:    71.3971  MISS %:    28.6029   MPKI: 0.54238
L2C PREFETCH  ACCESS:    4357783  HIT:    4329611  MISS:      28172  HIT %:    99.3535  MISS %:   0.646476   MPKI: 0.56344
L2C DATA PREFETCH MPKI: 0.3034
L2C INSTRUCTION PREFETCH MPKI: 0.26004
L2C WRITEBACK ACCESS:     229857  HIT:     225956  MISS:       3901  HIT %:    98.3029  MISS %:    1.69714   MPKI: 0.07802
L2C LOAD TRANSLATION ACCESS:      10174  HIT:       6185  MISS:       3989  HIT %:    60.7922  MISS %:    39.2078   MPKI: 0.07978
L2C TRANSLATION FROM L1D PREFETCHER ACCESS:        352  HIT:        120  MISS:        232  HIT %:    34.0909  MISS %:    65.9091   MPKI: 0.00464
L2C PREFETCH  REQUESTED:      31679  ISSUED:      31679  USEFUL:      11109  USELESS:      16993
L2C USEFUL LOAD PREFETCHES:      11109 PREFETCH ISSUED TO LOWER LEVEL:      29250  ACCURACY: 37.9795
L2C TIMELY PREFETCHES:      11109 LATE PREFETCHES: 1078 DROPPED PREFETCHES: 0
L2C PREFETCHES SAME FILL-ORIGIN LEVEL: 16248 DIFFERENT FILL-ORIGIN LEVEL: 0
L2C AVERAGE MISS LATENCY: 168.261 cycles
L2C RQ	ACCESS:     665141	FORWARD:          0	MERGED:          0	TO_CACHE:     665106
L2C WQ	ACCESS:     229857	FORWARD:         35	MERGED:          0	TO_CACHE:     229857
L2C PQ	ACCESS:    4368481	FORWARD:          0	MERGED:          0	TO_CACHE:    4368481

L2C Instructions Evicting Data 10888
L2C Translations Evicting Data 3926
L2C Data Evicting Data 185220
L2C Instructions Evicting Instructions 3294
L2C Translations Evicting Instructions 212
L2C Data Evicting Instructions 10322
L2C Instructions Evicting Translations 165
L2C Translations Evicting Translations 83
L2C Data Evicting Translations 3908
L2C Dense regions hint from L2: 0
PSCL5 TOTAL     ACCESS:       9792  HIT:       9792  MISS:          0  HIT %:        100  MISS %:          0   MPKI: 0
PSCL5 LOAD TRANSLATION ACCESS:       9499  HIT:       9499  MISS:          0  HIT %:        100  MISS %:          0   MPKI: 0
PSCL5 TRANSLATION FROM L1D PREFETCHER ACCESS:        293  HIT:        293  MISS:          0  HIT %:        100  MISS %:          0   MPKI: 0
PSCL5 PREFETCH  REQUESTED:          0  ISSUED:          0  USEFUL:          0  USELESS:          0
PSCL5 USEFUL LOAD PREFETCHES:          0 PREFETCH ISSUED TO LOWER LEVEL:          0  ACCURACY: -nan
PSCL5 TIMELY PREFETCHES:          0 LATE PREFETCHES: 0 DROPPED PREFETCHES: 0
PSCL5 PREFETCHES SAME FILL-ORIGIN LEVEL: 0 DIFFERENT FILL-ORIGIN LEVEL: 0

PSCL4 TOTAL     ACCESS:       9502  HIT:       9472  MISS:         30  HIT %:    99.6843  MISS %:   0.315723   MPKI: 0.0006
PSCL4 LOAD TRANSLATION ACCESS:       9215  HIT:       9185  MISS:         30  HIT %:    99.6744  MISS %:   0.325556   MPKI: 0.0006
PSCL4 TRANSLATION FROM L1D PREFETCHER ACCESS:        287  HIT:        287  MISS:          0  HIT %:        100  MISS %:          0   MPKI: 0
PSCL4 PREFETCH  REQUESTED:          0  ISSUED:          0  USEFUL:          0  USELESS:          0
PSCL4 USEFUL LOAD PREFETCHES:          0 PREFETCH ISSUED TO LOWER LEVEL:          0  ACCURACY: -nan
PSCL4 TIMELY PREFETCHES:          0 LATE PREFETCHES: 0 DROPPED PREFETCHES: 0
PSCL4 PREFETCHES SAME FILL-ORIGIN LEVEL: 0 DIFFERENT FILL-ORIGIN LEVEL: 0

PSCL3 TOTAL     ACCESS:       9632  HIT:       9602  MISS:         30  HIT %:    99.6885  MISS %:   0.311462   MPKI: 0.0006
PSCL3 LOAD TRANSLATION ACCESS:       9345  HIT:       9315  MISS:         30  HIT %:     99.679  MISS %:   0.321027   MPKI: 0.0006
PSCL3 TRANSLATION FROM L1D PREFETCHER ACCESS:        287  HIT:        287  MISS:          0  HIT %:        100  MISS %:          0   MPKI: 0
PSCL3 PREFETCH  REQUESTED:          0  ISSUED:          0  USEFUL:          0  USELESS:          0
PSCL3 USEFUL LOAD PREFETCHES:          0 PREFETCH ISSUED TO LOWER LEVEL:          0  ACCURACY: -nan
PSCL3 TIMELY PREFETCHES:          0 LATE PREFETCHES: 0 DROPPED PREFETCHES: 0
PSCL3 PREFETCHES SAME FILL-ORIGIN LEVEL: 0 DIFFERENT FILL-ORIGIN LEVEL: 0

PSCL2 TOTAL     ACCESS:       9792  HIT:       9116  MISS:        676  HIT %:    93.0964  MISS %:    6.90359   MPKI: 0.01352
PSCL2 LOAD TRANSLATION ACCESS:       9552  HIT:       8876  MISS:        676  HIT %:    92.9229  MISS %:    7.07705   MPKI: 0.01352
PSCL2 TRANSLATION FROM L1D PREFETCHER ACCESS:        240  HIT:        240  MISS:          0  HIT %:        100  MISS %:          0   MPKI: 0
PSCL2 PREFETCH  REQUESTED:          0  ISSUED:          0  USEFUL:          0  USELESS:          0
PSCL2 USEFUL LOAD PREFETCHES:          0 PREFETCH ISSUED TO LOWER LEVEL:          0  ACCURACY: -nan
PSCL2 TIMELY PREFETCHES:          0 LATE PREFETCHES: 0 DROPPED PREFETCHES: 0
PSCL2 PREFETCHES SAME FILL-ORIGIN LEVEL: 0 DIFFERENT FILL-ORIGIN LEVEL: 0

LLC TOTAL     ACCESS:     313781  HIT:     137756  MISS:     176025  HIT %:     43.902  MISS %:     56.098   MPKI: 3.5205
LLC LOAD      ACCESS:     157428  HIT:      21617  MISS:     135811  HIT %:    13.7314  MISS %:    86.2686   MPKI: 2.71622
LLC RFO       ACCESS:      27119  HIT:       8158  MISS:      18961  HIT %:    30.0822  MISS %:    69.9178   MPKI: 0.37922
LLC PREFETCH  ACCESS:      29250  HIT:      10604  MISS:      18646  HIT %:     36.253  MISS %:     63.747   MPKI: 0.37292
LLC WRITEBACK ACCESS:      95763  HIT:      94289  MISS:       1474  HIT %:    98.4608  MISS %:    1.53922   MPKI: 0.02948
LLC LOAD TRANSLATION ACCESS:       3989  HIT:       2988  MISS:       1001  HIT %:     74.906  MISS %:     25.094   MPKI: 0.02002
LLC TRANSLATION FROM L1D PREFETCHER ACCESS:        232  HIT:        100  MISS:        132  HIT %:    43.1034  MISS %:    56.8966   MPKI: 0.00264
LLC PREFETCH  REQUESTED:          0  ISSUED:          0  USEFUL:       1298  USELESS:      15985
LLC USEFUL LOAD PREFETCHES:       1298 PREFETCH ISSUED TO LOWER LEVEL:      18646  ACCURACY: 6.96128
LLC TIMELY PREFETCHES:       1298 LATE PREFETCHES: 0 DROPPED PREFETCHES: 0
LLC PREFETCHES SAME FILL-ORIGIN LEVEL: 0 DIFFERENT FILL-ORIGIN LEVEL: 0
LLC AVERAGE MISS LATENCY: 175.545 cycles
LLC RQ	ACCESS:     188768	FORWARD:          0	MERGED:          0	TO_CACHE:     188768
LLC WQ	ACCESS:      95763	FORWARD:          0	MERGED:          0	TO_CACHE:      95763
LLC PQ	ACCESS:      29250	FORWARD:          0	MERGED:          0	TO_CACHE:      29250

LLC Dense regions hint to LLC: 0

RAW hits: 1606610
Loads Generated: 12082709
Loads sent to L1D: 10476100
Stores Generated: 6507515
Stores sent to L1D: 6507513
Major fault: 0 Minor fault: 5644
Allocated PAGES: 5644
I-Shadow cache 408 bytes
Touched + WorthPF tables 6144 bytes 
MMA filter 174 bytes 
FNL filter 272 bytes 
TOTAL PREFETCHER STORAGE SIZE: 25174 bytes
CPU 0 L1I next line prefetcher final stats
[Bingo] PHT Access: 14849
[Bingo] PHT Hit PC+Addr: 2606
[Bingo] PHT Hit PC+Offs: 8684
[Bingo] PHT Miss: 3559
[Bingo] Prefetch PC+Addr: 0
[Bingo] Prefetch PC+Offs: 0
[Bingo] Useful PC+Addr: 0
[Bingo] Useful PC+Offs: 0
[Bingo] Useless PC+Addr: 0
[Bingo] Useless PC+Offs: 0
[Bingo] L1 Prefetch per Region: 0
[Bingo] L2 Prefetch per Region: 3.80629
[Bingo] L3 Prefetch per Region: 0
[Bingo] No Prefetch per Region: 28.1937
[Bingo] Number of Voters Mean: 10.0708
[Bingo] Number of Voters SD: 6.41174
PHT read accesses: 140530
PHT write accesses: 6822
AT read accesses: 48341
AT write accesses: 51735
FT read accesses: 49550
FT write accesses: 14849
PS read accesses: 22593
PS write accesses: 11290
PHT tag read accesses: 399592
PHT tag write accesses: 9428
AT tag read accesses: 4996206
AT tag write accesses: 55128
FT tag read accesses: 4582077
FT tag write accesses: 45253
PS tag read accesses: 1527040
PS tag write accesses: 33881

DRAM Statistics
 CHANNEL 0
 RQ ROW_BUFFER_HIT:      35810  ROW_BUFFER_MISS:     138736
 DBUS_CONGESTED:        248
 WQ ROW_BUFFER_HIT:      23640  ROW_BUFFER_MISS:      61166  FULL:          0

 AVG_CONGESTED_CYCLE: 4
 All warmup complete: 2
Channel 0 Bank busy for read cycles: 0
Channel 0 Bank busy for write cycles: 0
Channel 0
Rank 0
0banks busy for read cycles: 53105835
0banks busy for write cycles: 24085
1banks busy for read cycles: 8850281
1banks busy for write cycles: 3668616
2banks busy for read cycles: 2884513
2banks busy for write cycles: 1626113
3banks busy for read cycles: 1318303
3banks busy for write cycles: 915597
4banks busy for read cycles: 472975
4banks busy for write cycles: 617881
5banks busy for read cycles: 142197
5banks busy for write cycles: 421855
6banks busy for read cycles: 95091
6banks busy for write cycles: 333976
7banks busy for read cycles: 117209
7banks busy for write cycles: 245047
8banks busy for read cycles: 10933
8banks busy for write cycles: 155394

CPU 0 Branch Prediction Accuracy: 99.9115% MPKI: 0.17232 Average ROB Occupancy at Mispredict: 74.4966
Branch types
NOT_BRANCH: 40267215 80.5344%
BRANCH_DIRECT_JUMP: 771899 1.5438%
BRANCH_INDIRECT: 108179 0.216358%
BRANCH_CONDITIONAL: 6307160 12.6143%
BRANCH_DIRECT_CALL: 1060892 2.12178%
BRANCH_INDIRECT_CALL: 211719 0.423438%
BRANCH_RETURN: 1272633 2.54527%
BRANCH_OTHER: 0 0%

DRAM PAGES: 1048576
Allocated PAGES: 5644
