
*** ChampSim Multicore Out-of-Order Simulator ***

Warmup Instructions: 50000000
Simulation Instructions: 50000000
Number of CPUs: 1
LLC sets: 2048
LLC ways: 16
Off-chip DRAM Size: 4096 MB Channels: 1 Width: 64-bit Data Rate: 6400 MT/s
CPU 0 runs ../IPC-traces//server_031.champsimtrace.xz
.xz
BTB has LRU replacement policy
ITLB has LRU replacement policy
DTLB has LRU replacement policy
STLB has LRU replacement policy
CPU 0 L1I next line prefetcher
L1I has LRU replacement policy
IP Table Entries: 64
L1D has LRU replacement policy
Initialize SRRIP state for L2C
Initialize DRRIP state for LLC
Heartbeat CPU 0 instructions: 10000000 cycles: 2885343 heartbeat IPC: 3.46579 cumulative IPC: 3.46579 (Simulation time: 0 hr 4 min 57 sec) 
Heartbeat CPU 0 instructions: 20000000 cycles: 5766971 heartbeat IPC: 3.47026 cumulative IPC: 3.46802 (Simulation time: 0 hr 9 min 32 sec) 
Heartbeat CPU 0 instructions: 30000002 cycles: 8646963 heartbeat IPC: 3.47223 cumulative IPC: 3.46943 (Simulation time: 0 hr 14 min 7 sec) 
Heartbeat CPU 0 instructions: 40000003 cycles: 11527028 heartbeat IPC: 3.47214 cumulative IPC: 3.47011 (Simulation time: 0 hr 17 min 49 sec) 
Heartbeat CPU 0 instructions: 50000001 cycles: 14409870 heartbeat IPC: 3.4688 cumulative IPC: 3.46984 (Simulation time: 0 hr 21 min 4 sec) 

Warmup complete CPU 0 instructions: 50000001 cycles: 14409870 (Simulation time: 0 hr 21 min 4 sec) 

Heartbeat CPU 0 instructions: 60000002 cycles: 30958529 heartbeat IPC: 0.604279 cumulative IPC: 0.604279 (Simulation time: 0 hr 24 min 23 sec) 
Heartbeat CPU 0 instructions: 70000001 cycles: 47533947 heartbeat IPC: 0.603303 cumulative IPC: 0.60379 (Simulation time: 0 hr 27 min 46 sec) 
*** Reached end of trace for Core: 0 Repeating trace: ../IPC-traces//server_031.champsimtrace.xz
Heartbeat CPU 0 instructions: 80000000 cycles: 63920193 heartbeat IPC: 0.610268 cumulative IPC: 0.605934 (Simulation time: 0 hr 31 min 14 sec) 
Heartbeat CPU 0 instructions: 90000000 cycles: 80312818 heartbeat IPC: 0.61003 cumulative IPC: 0.606953 (Simulation time: 0 hr 34 min 34 sec) 
Heartbeat CPU 0 instructions: 100000000 cycles: 96620888 heartbeat IPC: 0.613193 cumulative IPC: 0.608191 (Simulation time: 0 hr 40 min 29 sec) 
Finished CPU 0 instructions: 50000000 cycles: 82211024 cumulative IPC: 0.608191 (Simulation time: 0 hr 40 min 29 sec) 

ChampSim completed all CPUs

Region of Interest Statistics

CPU 0 cumulative IPC: 0.608191 instructions: 50000000 cycles: 82211024

CPU 0 Average Load ROB stall cycles: 1.97311e+07
CPU 0 Fraction of times ROB stalled by Loads: 35.4488
CPU 0 Percentage of Load stall cycles in Total stall cycles: 2.6819e+08
Issued all: 27926140
Issued LT all: 22069160
rob_not_full_when_issued_lt_all: 21920777
Issued LT one: 17140899
rob_not_full_when_issued_lt_one: 17011953
 Total stall cycles: 69758484
 Total load stall cycles: 187085061741192
Unique Load IPs: 12877
CPU 0 NUM of IPS identified critical: 34
CPU 0 Num of Load IPs stalling ROB: 0
Threshold modification factor: 0
Trouble in retire width: -nan
MaC = Marked as critical.
lt_50_percent_before_Mac: 4
gt_90_percent_before_Mac: 2
gt_75_percent_before_Mac: 12
gt_50_percent_before_Mac: 11
stall_proportion_bin_same_before_after: 0
stall_proportion_bin_lower_before_after: 0
stall_proportion_bin_upper_before_after: 0
average_stall_proportion_before: 0.041007
average_stall_proportion_after: 0.0434577
Critical_IP_Detector_Accuracy_70: 0
Critical_IP_Detector_Accuracy_80: 0
Critical_IP_Detector_Accuracy_90: 0
Critical_IP_Detector_Coverage_70: 0
Critical_IP_Detector_Coverage_80: 0
Critical_IP_Detector_Coverage_90: 0
stat_90_percent_critical_ip_stalls_freq: 45429
stat_90_percent_non_critical_ip_stalls_freq: 18446744073709506187
AVERAGE_ROB_Occupancy_90_Percent_Critical_IP_Stalls: 17.7187
AVERAGE_ROB_Occupancy_90_Percent_Non_Critical_IP_Stalls: 8.59537e-12
Critical_IP_ROB_Stalls_Bucket_0: 40858
Non-critical_IP_ROB_Stalls_Bucket_0: 2242558
Critical_IP_ROB_Stalls_Bucket_1: 2456
Non-critical_IP_ROB_Stalls_Bucket_1: 710080
Critical_IP_ROB_Stalls_Bucket_2: 415
Non-critical_IP_ROB_Stalls_Bucket_2: 248161
Critical_IP_ROB_Stalls_Bucket_3: 424
Non-critical_IP_ROB_Stalls_Bucket_3: 69337
Critical_IP_ROB_Stalls_Bucket_4: 176
Non-critical_IP_ROB_Stalls_Bucket_4: 26979
Critical_IP_ROB_Stalls_Bucket_5: 97
Non-critical_IP_ROB_Stalls_Bucket_5: 10184
Critical_IP_ROB_Stalls_Bucket_6: 84
Non-critical_IP_ROB_Stalls_Bucket_6: 9347
0 => IPs accounting for >50 percent of stalls, 1 => 55, 2 => 60, 3 => 65 and so on till 90.
percent50: inf num IPs:  1
percent55: inf num IPs: 1
percent60: inf num IPs: 1
percent65: inf num IPs: 1
percent70: inf num IPs: 1
percent75: inf num IPs: 1
percent80: inf num IPs: 1
percent85: inf num IPs: 1
percent90: inf num IPs: 1
Critical_ROB_Stalls_Percent_0_Bucket_0: 45358
Non-critical_ROB_Stalls_Percent_0_Bucket_0: 2238058
Critical_ROB_Stalls_Percent_0_Bucket_1: 66
Non-critical_ROB_Stalls_Percent_0_Bucket_1: 712470
Critical_ROB_Stalls_Percent_0_Bucket_2: 0
Non-critical_ROB_Stalls_Percent_0_Bucket_2: 248576
Critical_ROB_Stalls_Percent_0_Bucket_3: 2
Non-critical_ROB_Stalls_Percent_0_Bucket_3: 69759
Critical_ROB_Stalls_Percent_0_Bucket_4: 2
Non-critical_ROB_Stalls_Percent_0_Bucket_4: 27153
Critical_ROB_Stalls_Percent_0_Bucket_5: 1
Non-critical_ROB_Stalls_Percent_0_Bucket_5: 10280
Critical_ROB_Stalls_Percent_0_Bucket_6: 0
Non-critical_ROB_Stalls_Percent_0_Bucket_6: 9431
Critical_ROB_Stalls_Percent_1_Bucket_0: 45358
Non-critical_ROB_Stalls_Percent_1_Bucket_0: 2238058
Critical_ROB_Stalls_Percent_1_Bucket_1: 66
Non-critical_ROB_Stalls_Percent_1_Bucket_1: 712470
Critical_ROB_Stalls_Percent_1_Bucket_2: 0
Non-critical_ROB_Stalls_Percent_1_Bucket_2: 248576
Critical_ROB_Stalls_Percent_1_Bucket_3: 2
Non-critical_ROB_Stalls_Percent_1_Bucket_3: 69759
Critical_ROB_Stalls_Percent_1_Bucket_4: 2
Non-critical_ROB_Stalls_Percent_1_Bucket_4: 27153
Critical_ROB_Stalls_Percent_1_Bucket_5: 1
Non-critical_ROB_Stalls_Percent_1_Bucket_5: 10280
Critical_ROB_Stalls_Percent_1_Bucket_6: 0
Non-critical_ROB_Stalls_Percent_1_Bucket_6: 9431
Critical_ROB_Stalls_Percent_2_Bucket_0: 45358
Non-critical_ROB_Stalls_Percent_2_Bucket_0: 2238058
Critical_ROB_Stalls_Percent_2_Bucket_1: 66
Non-critical_ROB_Stalls_Percent_2_Bucket_1: 712470
Critical_ROB_Stalls_Percent_2_Bucket_2: 0
Non-critical_ROB_Stalls_Percent_2_Bucket_2: 248576
Critical_ROB_Stalls_Percent_2_Bucket_3: 2
Non-critical_ROB_Stalls_Percent_2_Bucket_3: 69759
Critical_ROB_Stalls_Percent_2_Bucket_4: 2
Non-critical_ROB_Stalls_Percent_2_Bucket_4: 27153
Critical_ROB_Stalls_Percent_2_Bucket_5: 1
Non-critical_ROB_Stalls_Percent_2_Bucket_5: 10280
Critical_ROB_Stalls_Percent_2_Bucket_6: 0
Non-critical_ROB_Stalls_Percent_2_Bucket_6: 9431
Critical_ROB_Stalls_Percent_3_Bucket_0: 45358
Non-critical_ROB_Stalls_Percent_3_Bucket_0: 2238058
Critical_ROB_Stalls_Percent_3_Bucket_1: 66
Non-critical_ROB_Stalls_Percent_3_Bucket_1: 712470
Critical_ROB_Stalls_Percent_3_Bucket_2: 0
Non-critical_ROB_Stalls_Percent_3_Bucket_2: 248576
Critical_ROB_Stalls_Percent_3_Bucket_3: 2
Non-critical_ROB_Stalls_Percent_3_Bucket_3: 69759
Critical_ROB_Stalls_Percent_3_Bucket_4: 2
Non-critical_ROB_Stalls_Percent_3_Bucket_4: 27153
Critical_ROB_Stalls_Percent_3_Bucket_5: 1
Non-critical_ROB_Stalls_Percent_3_Bucket_5: 10280
Critical_ROB_Stalls_Percent_3_Bucket_6: 0
Non-critical_ROB_Stalls_Percent_3_Bucket_6: 9431
Critical_ROB_Stalls_Percent_4_Bucket_0: 45358
Non-critical_ROB_Stalls_Percent_4_Bucket_0: 2238058
Critical_ROB_Stalls_Percent_4_Bucket_1: 66
Non-critical_ROB_Stalls_Percent_4_Bucket_1: 712470
Critical_ROB_Stalls_Percent_4_Bucket_2: 0
Non-critical_ROB_Stalls_Percent_4_Bucket_2: 248576
Critical_ROB_Stalls_Percent_4_Bucket_3: 2
Non-critical_ROB_Stalls_Percent_4_Bucket_3: 69759
Critical_ROB_Stalls_Percent_4_Bucket_4: 2
Non-critical_ROB_Stalls_Percent_4_Bucket_4: 27153
Critical_ROB_Stalls_Percent_4_Bucket_5: 1
Non-critical_ROB_Stalls_Percent_4_Bucket_5: 10280
Critical_ROB_Stalls_Percent_4_Bucket_6: 0
Non-critical_ROB_Stalls_Percent_4_Bucket_6: 9431
Critical_ROB_Stalls_Percent_5_Bucket_0: 45358
Non-critical_ROB_Stalls_Percent_5_Bucket_0: 2238058
Critical_ROB_Stalls_Percent_5_Bucket_1: 66
Non-critical_ROB_Stalls_Percent_5_Bucket_1: 712470
Critical_ROB_Stalls_Percent_5_Bucket_2: 0
Non-critical_ROB_Stalls_Percent_5_Bucket_2: 248576
Critical_ROB_Stalls_Percent_5_Bucket_3: 2
Non-critical_ROB_Stalls_Percent_5_Bucket_3: 69759
Critical_ROB_Stalls_Percent_5_Bucket_4: 2
Non-critical_ROB_Stalls_Percent_5_Bucket_4: 27153
Critical_ROB_Stalls_Percent_5_Bucket_5: 1
Non-critical_ROB_Stalls_Percent_5_Bucket_5: 10280
Critical_ROB_Stalls_Percent_5_Bucket_6: 0
Non-critical_ROB_Stalls_Percent_5_Bucket_6: 9431
Critical_ROB_Stalls_Percent_6_Bucket_0: 45358
Non-critical_ROB_Stalls_Percent_6_Bucket_0: 2238058
Critical_ROB_Stalls_Percent_6_Bucket_1: 66
Non-critical_ROB_Stalls_Percent_6_Bucket_1: 712470
Critical_ROB_Stalls_Percent_6_Bucket_2: 0
Non-critical_ROB_Stalls_Percent_6_Bucket_2: 248576
Critical_ROB_Stalls_Percent_6_Bucket_3: 2
Non-critical_ROB_Stalls_Percent_6_Bucket_3: 69759
Critical_ROB_Stalls_Percent_6_Bucket_4: 2
Non-critical_ROB_Stalls_Percent_6_Bucket_4: 27153
Critical_ROB_Stalls_Percent_6_Bucket_5: 1
Non-critical_ROB_Stalls_Percent_6_Bucket_5: 10280
Critical_ROB_Stalls_Percent_6_Bucket_6: 0
Non-critical_ROB_Stalls_Percent_6_Bucket_6: 9431
Critical_ROB_Stalls_Percent_7_Bucket_0: 45358
Non-critical_ROB_Stalls_Percent_7_Bucket_0: 2238058
Critical_ROB_Stalls_Percent_7_Bucket_1: 66
Non-critical_ROB_Stalls_Percent_7_Bucket_1: 712470
Critical_ROB_Stalls_Percent_7_Bucket_2: 0
Non-critical_ROB_Stalls_Percent_7_Bucket_2: 248576
Critical_ROB_Stalls_Percent_7_Bucket_3: 2
Non-critical_ROB_Stalls_Percent_7_Bucket_3: 69759
Critical_ROB_Stalls_Percent_7_Bucket_4: 2
Non-critical_ROB_Stalls_Percent_7_Bucket_4: 27153
Critical_ROB_Stalls_Percent_7_Bucket_5: 1
Non-critical_ROB_Stalls_Percent_7_Bucket_5: 10280
Critical_ROB_Stalls_Percent_7_Bucket_6: 0
Non-critical_ROB_Stalls_Percent_7_Bucket_6: 9431
Critical_ROB_Stalls_Percent_8_Bucket_0: 45358
Non-critical_ROB_Stalls_Percent_8_Bucket_0: 2238058
Critical_ROB_Stalls_Percent_8_Bucket_1: 66
Non-critical_ROB_Stalls_Percent_8_Bucket_1: 712470
Critical_ROB_Stalls_Percent_8_Bucket_2: 0
Non-critical_ROB_Stalls_Percent_8_Bucket_2: 248576
Critical_ROB_Stalls_Percent_8_Bucket_3: 2
Non-critical_ROB_Stalls_Percent_8_Bucket_3: 69759
Critical_ROB_Stalls_Percent_8_Bucket_4: 2
Non-critical_ROB_Stalls_Percent_8_Bucket_4: 27153
Critical_ROB_Stalls_Percent_8_Bucket_5: 1
Non-critical_ROB_Stalls_Percent_8_Bucket_5: 10280
Critical_ROB_Stalls_Percent_8_Bucket_6: 0
Non-critical_ROB_Stalls_Percent_8_Bucket_6: 9431
Average ROB occupancy Load Stall Begin: 38.7013
Average ROB occupancy Load Stall End: 47.4127
Min ROB occupancy Load Stall Begin: 1
Max ROB occupancy Load Stall Begin: 352
Min ROB occupancy Load Stall End: 1
Max ROB occupancy Load Stall End: 352
Average ROB occupancy Critical Load Stall Begin: 36.5803
Average ROB occupancy Critical Load Stall End: 42.3164
Min ROB occupancy Critical Load Stall Begin: 1
Max ROB occupancy Critical Load Stall Begin: 352
Min ROB occupancy Critical Load Stall End: 2
Max ROB occupancy Critical Load Stall End: 352
 ROB Load Stall Begin Bucket Count 0: 2551471
 ROB Load Stall End Bucket Count 0: 2283416
 ROB Critical Load Stall Begin Bucket Count 0: 14269
 ROB Critical Load Stall End Bucket Count 0: 13949
 ROB Load Stall Begin Bucket Count 1: 526985
 ROB Load Stall End Bucket Count 1: 712536
 ROB Critical Load Stall Begin Bucket Count 1: 546
 ROB Critical Load Stall End Bucket Count 1: 830
 ROB Load Stall Begin Bucket Count 2: 190302
 ROB Load Stall End Bucket Count 2: 248576
 ROB Critical Load Stall Begin Bucket Count 2: 284
 ROB Critical Load Stall End Bucket Count 2: 243
 ROB Load Stall Begin Bucket Count 3: 54241
 ROB Load Stall End Bucket Count 3: 69761
 ROB Critical Load Stall Begin Bucket Count 3: 212
 ROB Critical Load Stall End Bucket Count 3: 270
 ROB Load Stall Begin Bucket Count 4: 21688
 ROB Load Stall End Bucket Count 4: 27155
 ROB Critical Load Stall Begin Bucket Count 4: 94
 ROB Critical Load Stall End Bucket Count 4: 110
 ROB Load Stall Begin Bucket Count 5: 8208
 ROB Load Stall End Bucket Count 5: 10281
 ROB Critical Load Stall Begin Bucket Count 5: 51
 ROB Critical Load Stall End Bucket Count 5: 53
 ROB Load Stall Begin Bucket Count 6: 8261
 ROB Load Stall End Bucket Count 6: 9431
 ROB Critical Load Stall Begin Bucket Count 6: 45
 ROB Critical Load Stall End Bucket Count 6: 52
PIST Tag Read Accesses: 0
PIST Read Accesses: 0
PIST Tag Write Accesses: 0
PIST Write Accesses: 0
Criticality detector called times: 0
Max global_stall_cycles_count: 0
Threshold Modified: 0 times, factor: 0
Sturdy critical IP cache stats: 
 Unused entries: 0
CIC Tag Read Accesses: 0
CIC Read Accesses: 0
CIC Tag Write Accesses: 0
CIC Write Accesses: 0
Wobbly critical IP cache stats: 
 Unused entries: 0
CIC Tag Read Accesses: 147663059
CIC Read Accesses: 0
CIC Tag Write Accesses: 205216
CIC Write Accesses: 0
ITLB TOTAL     ACCESS:   10415228  HIT:    9652012  MISS:     763216  HIT %:    92.6721  MISS %:    7.32789   MPKI: 15.2643
ITLB LOAD TRANSLATION ACCESS:    8211415  HIT:    8157341  MISS:      54074  HIT %:    99.3415  MISS %:   0.658522   MPKI: 1.08148
ITLB TRANSLATION FROM L1D PREFETCHER ACCESS:    2203813  HIT:    1494671  MISS:     709142  HIT %:     67.822  MISS %:     32.178   MPKI: 14.1828
ITLB PREFETCH  REQUESTED:          0  ISSUED:          0  USEFUL:     569829  USELESS:     139312
ITLB USEFUL LOAD PREFETCHES:     569829 PREFETCH ISSUED TO LOWER LEVEL:          0  ACCURACY: inf
ITLB TIMELY PREFETCHES:     569829 LATE PREFETCHES: 24 DROPPED PREFETCHES: 5547
ITLB PREFETCHES SAME FILL-ORIGIN LEVEL: 0 DIFFERENT FILL-ORIGIN LEVEL: 0
ITLB AVERAGE MISS LATENCY: 1447.6 cycles
ITLB RQ	ACCESS:   15913314	FORWARD:          0	MERGED:    5453103	TO_CACHE:   10460211

DTLB TOTAL     ACCESS:   11372425  HIT:   10814484  MISS:     557941  HIT %:    95.0939  MISS %:    4.90609   MPKI: 11.1588
DTLB LOAD TRANSLATION ACCESS:   11372425  HIT:   10814484  MISS:     557941  HIT %:    95.0939  MISS %:    4.90609   MPKI: 11.1588
DTLB PREFETCH  REQUESTED:          0  ISSUED:          0  USEFUL:          0  USELESS:          0
DTLB USEFUL LOAD PREFETCHES:          0 PREFETCH ISSUED TO LOWER LEVEL:          0  ACCURACY: -nan
DTLB TIMELY PREFETCHES:          0 LATE PREFETCHES: 0 DROPPED PREFETCHES: 0
DTLB PREFETCHES SAME FILL-ORIGIN LEVEL: 0 DIFFERENT FILL-ORIGIN LEVEL: 0
DTLB AVERAGE MISS LATENCY: 10.9732 cycles
DTLB RQ	ACCESS:   14905004	FORWARD:          0	MERGED:    3505347	TO_CACHE:   11399657

STLB TOTAL     ACCESS:    1327595  HIT:    1311384  MISS:      16211  HIT %:    98.7789  MISS %:    1.22108   MPKI: 0.32422
STLB LOAD TRANSLATION ACCESS:     611991  HIT:     597714  MISS:      14277  HIT %:    97.6671  MISS %:    2.33288   MPKI: 0.28554
STLB TRANSLATION FROM L1D PREFETCHER ACCESS:     715604  HIT:     713670  MISS:       1934  HIT %:    99.7297  MISS %:   0.270261   MPKI: 0.03868
STLB PREFETCH  REQUESTED:          0  ISSUED:          0  USEFUL:       1639  USELESS:        285
STLB USEFUL LOAD PREFETCHES:       1639 PREFETCH ISSUED TO LOWER LEVEL:          0  ACCURACY: inf
STLB TIMELY PREFETCHES:       1639 LATE PREFETCHES: 0 DROPPED PREFETCHES: 5547
STLB PREFETCHES SAME FILL-ORIGIN LEVEL: 0 DIFFERENT FILL-ORIGIN LEVEL: 0
STLB AVERAGE MISS LATENCY: 74.0343 cycles
STLB RQ	ACCESS:    1333531	FORWARD:          0	MERGED:        389	TO_CACHE:    1333142

STLB Hit, L1D data hit: 0
STLB Hit, L2C data hit: 0
STLB Hit, LLC data hit: 0
STLB Hit, LLC data miss: 0
STLB STLB hints to L2: 0
L1D TOTAL     ACCESS:   14367021  HIT:   13123009  MISS:    1244012  HIT %:    91.3412  MISS %:     8.6588   MPKI: 24.8802
L1D LOAD      ACCESS:    7945810  HIT:    7009276  MISS:     936534  HIT %:    88.2135  MISS %:    11.7865   MPKI: 18.7307
L1D RFO       ACCESS:    6415573  HIT:    6112079  MISS:     303494  HIT %:    95.2694  MISS %:    4.73058   MPKI: 6.06988
L1D PREFETCH  ACCESS:       5638  HIT:       1654  MISS:       3984  HIT %:    29.3366  MISS %:    70.6634   MPKI: 0.07968
L1D PREFETCH  REQUESTED:      13678  ISSUED:      13678  USEFUL:        241  USELESS:       3752
L1D USEFUL LOAD PREFETCHES:        241 PREFETCH ISSUED TO LOWER LEVEL:       4129  ACCURACY: 5.83676
L1D TIMELY PREFETCHES:        241 LATE PREFETCHES: 145 DROPPED PREFETCHES: 0
L1D PREFETCHES SAME FILL-ORIGIN LEVEL: 4129 DIFFERENT FILL-ORIGIN LEVEL: 0
L1D AVERAGE MISS LATENCY: 8449.68 cycles
L1D RQ	ACCESS:   11334253	FORWARD:          0	MERGED:    3193662	TO_CACHE:    7991478
L1D WQ	ACCESS:    6987103	FORWARD:     149137	MERGED:      73577	TO_CACHE:    6913526
L1D PQ	ACCESS:       6851	FORWARD:          0	MERGED:          0	TO_CACHE:       6827

L1D UNIQUE REGIONS ACCESSED: 0
L1D REGIONS CONFLICTS: 0
L1D Cross Page Prefetch Requests: 0
L1D Same Page Prefetch Requests: 251799
L1D ROI Sum of L1D PQ occupancy: 88764
L1D PREFETCHES PUSHED FROM L2C: 0
L1I TOTAL     ACCESS:   15818378  HIT:   11480559  MISS:    4337819  HIT %:    72.5773  MISS %:    27.4227   MPKI: 86.7564
L1I LOAD      ACCESS:    9704862  HIT:    9622823  MISS:      82039  HIT %:    99.1547  MISS %:   0.845339   MPKI: 1.64078
L1I PREFETCH  ACCESS:    6113516  HIT:    1857736  MISS:    4255780  HIT %:    30.3874  MISS %:    69.6126   MPKI: 85.1156
L1I PREFETCH  REQUESTED:    6339904  ISSUED:    6316175  USEFUL:    3048968  USELESS:    1206849
L1I USEFUL LOAD PREFETCHES:    3048968 PREFETCH ISSUED TO LOWER LEVEL:    4270086  ACCURACY: 71.403
L1I TIMELY PREFETCHES:    3048968 LATE PREFETCHES: 14311 DROPPED PREFETCHES: 12138
L1I PREFETCHES SAME FILL-ORIGIN LEVEL: 4270086 DIFFERENT FILL-ORIGIN LEVEL: 0
L1I AVERAGE MISS LATENCY: 184700 cycles
L1I RQ	ACCESS:   13652852	FORWARD:          0	MERGED:    3935950	TO_CACHE:    9716902
L1I PQ	ACCESS:    6316175	FORWARD:          0	MERGED:     119763	TO_CACHE:    6196412

BTB TOTAL     ACCESS:    6108852  HIT:    4217950  MISS:    1890902  HIT %:    69.0465  MISS %:    30.9535   MPKI: 37.818
BTB BRANCH_DIRECT_JUMP	ACCESS:     546484  HIT:     394596  MISS:     151888
BTB BRANCH_INDIRECT	ACCESS:     172436  HIT:     135684  MISS:      36752
BTB BRANCH_CONDITIONAL	ACCESS:    2972197  HIT:    2453645  MISS:     518552
BTB BRANCH_DIRECT_CALL	ACCESS:    1018501  HIT:     648529  MISS:     369972
BTB BRANCH_INDIRECT_CALL	ACCESS:     190374  HIT:     119426  MISS:      70948
BTB BRANCH_RETURN	ACCESS:    1208860  HIT:     466070  MISS:     742790
BTB BRANCH_OTHER ACCESS:          0  HIT:          0  MISS:          0

L2C TOTAL     ACCESS:    7490960  HIT:    6780050  MISS:     710910  HIT %:    90.5098  MISS %:    9.49024   MPKI: 14.2182
L2C LOAD      ACCESS:    1004107  HIT:     816006  MISS:     188101  HIT %:    81.2668  MISS %:    18.7332   MPKI: 3.76202
L2C DATA LOAD MPKI: 3.56672
L2C INSTRUCTION LOAD MPKI: 0.1953
L2C RFO       ACCESS:     303495  HIT:     259539  MISS:      43956  HIT %:    85.5167  MISS %:    14.4833   MPKI: 0.87912
L2C PREFETCH  ACCESS:    5573191  HIT:    5133783  MISS:     439408  HIT %:    92.1157  MISS %:    7.88432   MPKI: 8.78816
L2C DATA PREFETCH MPKI: 2.13584
L2C INSTRUCTION PREFETCH MPKI: 6.65232
L2C WRITEBACK ACCESS:     576546  HIT:     550165  MISS:      26381  HIT %:    95.4243  MISS %:     4.5757   MPKI: 0.52762
L2C LOAD TRANSLATION ACCESS:      21762  HIT:       9806  MISS:      11956  HIT %:    45.0602  MISS %:    54.9398   MPKI: 0.23912
L2C TRANSLATION FROM L1D PREFETCHER ACCESS:      11859  HIT:      10751  MISS:       1108  HIT %:    90.6569  MISS %:    9.34311   MPKI: 0.02216
L2C PREFETCH  REQUESTED:    3523893  ISSUED:    3523893  USEFUL:       3681  USELESS:     437641
L2C USEFUL LOAD PREFETCHES:       3681 PREFETCH ISSUED TO LOWER LEVEL:     439422  ACCURACY: 0.837691
L2C TIMELY PREFETCHES:       3681 LATE PREFETCHES: 14 DROPPED PREFETCHES: 0
L2C PREFETCHES SAME FILL-ORIGIN LEVEL: 104026 DIFFERENT FILL-ORIGIN LEVEL: 0
L2C AVERAGE MISS LATENCY: 36.8598 cycles
L2C RQ	ACCESS:    1341231	FORWARD:          0	MERGED:          0	TO_CACHE:    1341223
L2C WQ	ACCESS:     576546	FORWARD:          8	MERGED:          0	TO_CACHE:     576546
L2C PQ	ACCESS:    7798108	FORWARD:          0	MERGED:    2222849	TO_CACHE:    5575259

L2C Instructions Evicting Data 166737
L2C Translations Evicting Data 7986
L2C Data Evicting Data 168970
L2C Instructions Evicting Instructions 171595
L2C Translations Evicting Instructions 4152
L2C Data Evicting Instructions 152390
L2C Instructions Evicting Translations 4049
L2C Translations Evicting Translations 926
L2C Data Evicting Translations 7724
L2C Dense regions hint from L2: 0
PSCL5 TOTAL     ACCESS:      21758  HIT:      21758  MISS:          0  HIT %:        100  MISS %:          0   MPKI: 0
PSCL5 LOAD TRANSLATION ACCESS:      14277  HIT:      14277  MISS:          0  HIT %:        100  MISS %:          0   MPKI: 0
PSCL5 TRANSLATION FROM L1D PREFETCHER ACCESS:       7481  HIT:       7481  MISS:          0  HIT %:        100  MISS %:          0   MPKI: 0
PSCL5 PREFETCH  REQUESTED:          0  ISSUED:          0  USEFUL:          0  USELESS:          0
PSCL5 USEFUL LOAD PREFETCHES:          0 PREFETCH ISSUED TO LOWER LEVEL:          0  ACCURACY: -nan
PSCL5 TIMELY PREFETCHES:          0 LATE PREFETCHES: 0 DROPPED PREFETCHES: 0
PSCL5 PREFETCHES SAME FILL-ORIGIN LEVEL: 0 DIFFERENT FILL-ORIGIN LEVEL: 0

PSCL4 TOTAL     ACCESS:      20328  HIT:      20136  MISS:        192  HIT %:    99.0555  MISS %:    0.94451   MPKI: 0.00384
PSCL4 LOAD TRANSLATION ACCESS:      13256  HIT:      13064  MISS:        192  HIT %:    98.5516  MISS %:     1.4484   MPKI: 0.00384
PSCL4 TRANSLATION FROM L1D PREFETCHER ACCESS:       7072  HIT:       7072  MISS:          0  HIT %:        100  MISS %:          0   MPKI: 0
PSCL4 PREFETCH  REQUESTED:          0  ISSUED:          0  USEFUL:          0  USELESS:          0
PSCL4 USEFUL LOAD PREFETCHES:          0 PREFETCH ISSUED TO LOWER LEVEL:          0  ACCURACY: -nan
PSCL4 TIMELY PREFETCHES:          0 LATE PREFETCHES: 0 DROPPED PREFETCHES: 0
PSCL4 PREFETCHES SAME FILL-ORIGIN LEVEL: 0 DIFFERENT FILL-ORIGIN LEVEL: 0

PSCL3 TOTAL     ACCESS:      21595  HIT:      21400  MISS:        195  HIT %:     99.097  MISS %:   0.902987   MPKI: 0.0039
PSCL3 LOAD TRANSLATION ACCESS:      14265  HIT:      14070  MISS:        195  HIT %:     98.633  MISS %:    1.36698   MPKI: 0.0039
PSCL3 TRANSLATION FROM L1D PREFETCHER ACCESS:       7330  HIT:       7330  MISS:          0  HIT %:        100  MISS %:          0   MPKI: 0
PSCL3 PREFETCH  REQUESTED:          0  ISSUED:          0  USEFUL:          0  USELESS:          0
PSCL3 USEFUL LOAD PREFETCHES:          0 PREFETCH ISSUED TO LOWER LEVEL:          0  ACCURACY: -nan
PSCL3 TIMELY PREFETCHES:          0 LATE PREFETCHES: 0 DROPPED PREFETCHES: 0
PSCL3 PREFETCHES SAME FILL-ORIGIN LEVEL: 0 DIFFERENT FILL-ORIGIN LEVEL: 0

PSCL2 TOTAL     ACCESS:      18435  HIT:      10403  MISS:       8032  HIT %:    56.4307  MISS %:    43.5693   MPKI: 0.16064
PSCL2 LOAD TRANSLATION ACCESS:      15132  HIT:       7100  MISS:       8032  HIT %:    46.9204  MISS %:    53.0796   MPKI: 0.16064
PSCL2 TRANSLATION FROM L1D PREFETCHER ACCESS:       3303  HIT:       3303  MISS:          0  HIT %:        100  MISS %:          0   MPKI: 0
PSCL2 PREFETCH  REQUESTED:          0  ISSUED:          0  USEFUL:          0  USELESS:          0
PSCL2 USEFUL LOAD PREFETCHES:          0 PREFETCH ISSUED TO LOWER LEVEL:          0  ACCURACY: -nan
PSCL2 TIMELY PREFETCHES:          0 LATE PREFETCHES: 0 DROPPED PREFETCHES: 0
PSCL2 PREFETCHES SAME FILL-ORIGIN LEVEL: 0 DIFFERENT FILL-ORIGIN LEVEL: 0

LLC TOTAL     ACCESS:     746234  HIT:     706539  MISS:      39695  HIT %:    94.6806  MISS %:    5.31938   MPKI: 0.7939
LLC LOAD      ACCESS:     188087  HIT:     157382  MISS:      30705  HIT %:    83.6751  MISS %:    16.3249   MPKI: 0.6141
LLC RFO       ACCESS:      43956  HIT:      39738  MISS:       4218  HIT %:     90.404  MISS %:    9.59596   MPKI: 0.08436
LLC PREFETCH  ACCESS:     439422  HIT:     436275  MISS:       3147  HIT %:    99.2838  MISS %:   0.716168   MPKI: 0.06294
LLC WRITEBACK ACCESS:      61705  HIT:      61461  MISS:        244  HIT %:    99.6046  MISS %:    0.39543   MPKI: 0.00488
LLC LOAD TRANSLATION ACCESS:      11956  HIT:      10591  MISS:       1365  HIT %:    88.5831  MISS %:    11.4169   MPKI: 0.0273
LLC TRANSLATION FROM L1D PREFETCHER ACCESS:       1108  HIT:       1092  MISS:         16  HIT %:     98.556  MISS %:    1.44404   MPKI: 0.00032
LLC PREFETCH  REQUESTED:          0  ISSUED:          0  USEFUL:        894  USELESS:      10488
LLC USEFUL LOAD PREFETCHES:        894 PREFETCH ISSUED TO LOWER LEVEL:       3147  ACCURACY: 28.408
LLC TIMELY PREFETCHES:        894 LATE PREFETCHES: 0 DROPPED PREFETCHES: 0
LLC PREFETCHES SAME FILL-ORIGIN LEVEL: 0 DIFFERENT FILL-ORIGIN LEVEL: 0
LLC AVERAGE MISS LATENCY: 142.185 cycles
LLC RQ	ACCESS:     245107	FORWARD:          0	MERGED:          0	TO_CACHE:     245107
LLC WQ	ACCESS:      61705	FORWARD:          0	MERGED:          0	TO_CACHE:      61705
LLC PQ	ACCESS:     439422	FORWARD:          0	MERGED:          0	TO_CACHE:     439422

LLC Dense regions hint to LLC: 0

RAW hits: 1123153
Loads Generated: 12457406
Loads sent to L1D: 11334253
Stores Generated: 6987099
Stores sent to L1D: 6987103
Major fault: 0 Minor fault: 6261
Allocated PAGES: 6261
I-Shadow cache 408 bytes
Touched + WorthPF tables 6144 bytes 
MMA filter 174 bytes 
FNL filter 272 bytes 
TOTAL PREFETCHER STORAGE SIZE: 25174 bytes
CPU 0 L1I next line prefetcher final stats

stream: 
stream:times selected: 320437
stream:pref_filled: 72511
stream:pref_useful: 21055
stream:pref_late: 7121
stream:misses: 4566
stream:misses_by_poll: 0

CS: 
CS:times selected: 22881
CS:pref_filled: 21977
CS:pref_useful: 15456
CS:pref_late: 1599
CS:misses: 5851
CS:misses_by_poll: 0

CPLX: 
CPLX:times selected: 296635
CPLX:pref_filled: 19384
CPLX:pref_useful: 7184
CPLX:pref_late: 1468
CPLX:misses: 63973
CPLX:misses_by_poll: 0

NL_L1: 
NL:times selected: 1428
NL:pref_filled: 227
NL:pref_useful: 41
NL:pref_late: 17
NL:misses: 161
NL:misses_by_poll: 0

total selections: 641381
total_filled: 3984
total_useful: 241
total_late: 11221
total_polluted: 0
total_misses_after_warmup: 3595
conflicts: 496
Degree Incremented Times: 0
Degree Decremented Times: 45233

L1 IP Table Write Accesses: 48224
L1 IP Table Read Accesses: 47728
L1 RST Write Accesses: 7616
L1 RST Read Accesses: 15232
L1 CSPT Write Accesses: 7616
L1 CSPT Read Accesses: 15173
L1 RR Filter Tag Write Accesses: 6851
L1 RR Filter Tag Read Accesses: 246505
L1 IP Table Tag Write Accesses: 49281
L1 IP Table Tag Read Accesses: 49281
L1 RST Tag Write Accesses: 0
L1 RST Tag Read Accesses: 65218
L1 RR Filter Write Accesses: 0
L1 RR Filter Read Accesses: 8493
test: 65930
L2 IP Table Read Accesses: 3594482
L2 IP Table Write Accesses: 7168531
L2 IP Table Tag Read Accesses: 3586363
L2 IP Table Tag Write Accesses: 3586363

DRAM Statistics
 CHANNEL 0
 RQ ROW_BUFFER_HIT:      12969  ROW_BUFFER_MISS:      26482
 DBUS_CONGESTED:         15
 WQ ROW_BUFFER_HIT:       1002  ROW_BUFFER_MISS:       3320  FULL:          0

 AVG_CONGESTED_CYCLE: 4
 All warmup complete: 2
Channel 0 Bank busy for read cycles: 0
Channel 0 Bank busy for write cycles: 0
Channel 0
Rank 0
0banks busy for read cycles: 77936881
0banks busy for write cycles: 2346
1banks busy for read cycles: 2636209
1banks busy for write cycles: 558339
2banks busy for read cycles: 481377
2banks busy for write cycles: 191847
3banks busy for read cycles: 153695
3banks busy for write cycles: 74427
4banks busy for read cycles: 36120
4banks busy for write cycles: 45563
5banks busy for read cycles: 13856
5banks busy for write cycles: 17049
6banks busy for read cycles: 11835
6banks busy for write cycles: 6478
7banks busy for read cycles: 14126
7banks busy for write cycles: 2528
8banks busy for read cycles: 22495
8banks busy for write cycles: 5854

CPU 0 Branch Prediction Accuracy: 99.6894% MPKI: 0.58048 Average ROB Occupancy at Mispredict: 92.1108
Branch types
NOT_BRANCH: 40655643 81.3113%
BRANCH_DIRECT_JUMP: 546484 1.09297%
BRANCH_INDIRECT: 172436 0.344872%
BRANCH_CONDITIONAL: 6207571 12.4151%
BRANCH_DIRECT_CALL: 1018501 2.037%
BRANCH_INDIRECT_CALL: 190374 0.380748%
BRANCH_RETURN: 1208860 2.41772%
BRANCH_OTHER: 0 0%

DRAM PAGES: 1048576
Allocated PAGES: 6261
