Initialize SIGNATURE TABLE
ST_SET: 1
ST_WAY: 256
ST_TAG_BIT: 16
ST_TAG_MASK: ffff

Initialize PATTERN TABLE
PT_SET: 512
PT_WAY: 4
SIG_DELTA_BIT: 7
C_SIG_BIT: 4
C_DELTA_BIT: 4

Initialize PREFETCH FILTER
FILTER_SET: 1024

*** ChampSim Multicore Out-of-Order Simulator ***

Warmup Instructions: 50000000
Simulation Instructions: 50000000
Number of CPUs: 1
LLC sets: 2048
LLC ways: 16
Off-chip DRAM Size: 4096 MB Channels: 1 Width: 64-bit Data Rate: 6400 MT/s
CPU 0 runs ../IPC-traces//server_014.champsimtrace.xz
.xz
BTB has LRU replacement policy
ITLB has LRU replacement policy
DTLB has LRU replacement policy
STLB has LRU replacement policy
CPU 0 L1I next line prefetcher
L1I has LRU replacement policy
L1D has LRU replacement policy
Initialize SRRIP state for L2C
Initialize DRRIP state for LLC
Heartbeat CPU 0 instructions: 10000003 cycles: 2819518 heartbeat IPC: 3.54671 cumulative IPC: 3.54671 (Simulation time: 0 hr 3 min 7 sec) 
Heartbeat CPU 0 instructions: 20000002 cycles: 5667904 heartbeat IPC: 3.51076 cumulative IPC: 3.52864 (Simulation time: 0 hr 5 min 48 sec) 
Heartbeat CPU 0 instructions: 30000003 cycles: 8493569 heartbeat IPC: 3.53899 cumulative IPC: 3.53208 (Simulation time: 0 hr 8 min 29 sec) 
Heartbeat CPU 0 instructions: 40000002 cycles: 11321148 heartbeat IPC: 3.53659 cumulative IPC: 3.53321 (Simulation time: 0 hr 10 min 53 sec) 
Heartbeat CPU 0 instructions: 50000002 cycles: 14148530 heartbeat IPC: 3.53684 cumulative IPC: 3.53394 (Simulation time: 0 hr 13 min 0 sec) 

Warmup complete CPU 0 instructions: 50000002 cycles: 14148530 (Simulation time: 0 hr 13 min 0 sec) 

Heartbeat CPU 0 instructions: 60000000 cycles: 27470015 heartbeat IPC: 0.750667 cumulative IPC: 0.750667 (Simulation time: 0 hr 15 min 29 sec) 
Heartbeat CPU 0 instructions: 70000000 cycles: 40757972 heartbeat IPC: 0.752561 cumulative IPC: 0.751613 (Simulation time: 0 hr 18 min 1 sec) 
*** Reached end of trace for Core: 0 Repeating trace: ../IPC-traces//server_014.champsimtrace.xz
Heartbeat CPU 0 instructions: 80000001 cycles: 54065562 heartbeat IPC: 0.751451 cumulative IPC: 0.751559 (Simulation time: 0 hr 20 min 36 sec) 
Heartbeat CPU 0 instructions: 90000003 cycles: 68409143 heartbeat IPC: 0.697176 cumulative IPC: 0.737183 (Simulation time: 0 hr 23 min 16 sec) 
Heartbeat CPU 0 instructions: 100000000 cycles: 81870247 heartbeat IPC: 0.742881 cumulative IPC: 0.738316 (Simulation time: 0 hr 26 min 22 sec) 
Finished CPU 0 instructions: 50000003 cycles: 67721727 cumulative IPC: 0.738316 (Simulation time: 0 hr 26 min 22 sec) 

ChampSim completed all CPUs

Region of Interest Statistics

CPU 0 cumulative IPC: 0.738316 instructions: 50000003 cycles: 67721727

CPU 0 Average Load ROB stall cycles: 1.76071e+07
CPU 0 Fraction of times ROB stalled by Loads: 36.9006
CPU 0 Percentage of Load stall cycles in Total stall cycles: 2.54911e+08
Issued all: 28709380
Issued LT all: 22660270
rob_not_full_when_issued_lt_all: 18496144
Issued LT one: 18057130
rob_not_full_when_issued_lt_one: 14237526
FVP critical_dynamic_instances_0: 1261034
FVP unique_critical_ips_0: 4315
 Total stall cycles: 55728415
 Total load stall cycles: 142057733581125
Unique Load IPs: 15597
CPU 0 NUM of IPS identified critical: 0
CPU 0 Num of Load IPs stalling ROB: 0
Threshold modification factor: 0
Trouble in retire width: -nan
MaC = Marked as critical.
lt_50_percent_before_Mac: 0
gt_90_percent_before_Mac: 0
gt_75_percent_before_Mac: 0
gt_50_percent_before_Mac: 0
stall_proportion_bin_same_before_after: 0
stall_proportion_bin_lower_before_after: 0
stall_proportion_bin_upper_before_after: 0
average_stall_proportion_before: -nan
average_stall_proportion_after: -nan
Critical IP stalls, total frequency: 0
Non-critical IP stalls, total frequency: 0
Total Freq all stalling IPs: 0
Critical_IP_Detector_Accuracy_70: 0.00023175
Critical_IP_Detector_Accuracy_80: 0.00023175
Critical_IP_Detector_Accuracy_90: 0.00023175
Critical_IP_Detector_Coverage_70: 1
Critical_IP_Detector_Coverage_80: 1
Critical_IP_Detector_Coverage_90: 1
stat_90_percent_critical_ip_stalls_freq: 151167
stat_90_percent_non_critical_ip_stalls_freq: 18446744073709400449
AVERAGE_ROB_Occupancy_90_Percent_Critical_IP_Stalls: 272.175
AVERAGE_ROB_Occupancy_90_Percent_Non_Critical_IP_Stalls: 1.5423e-11
Critical_IP_ROB_Stalls_Bucket_0: 0
Non-critical_IP_ROB_Stalls_Bucket_0: 921265
Critical_IP_ROB_Stalls_Bucket_1: 0
Non-critical_IP_ROB_Stalls_Bucket_1: 980085
Critical_IP_ROB_Stalls_Bucket_2: 0
Non-critical_IP_ROB_Stalls_Bucket_2: 451370
Critical_IP_ROB_Stalls_Bucket_3: 0
Non-critical_IP_ROB_Stalls_Bucket_3: 152460
Critical_IP_ROB_Stalls_Bucket_4: 0
Non-critical_IP_ROB_Stalls_Bucket_4: 94375
Critical_IP_ROB_Stalls_Bucket_5: 0
Non-critical_IP_ROB_Stalls_Bucket_5: 89032
Critical_IP_ROB_Stalls_Bucket_6: 0
Non-critical_IP_ROB_Stalls_Bucket_6: 288630
0 => IPs accounting for >50 percent of stalls, 1 => 55, 2 => 60, 3 => 65 and so on till 90.
percent50: inf num IPs:  1
percent55: inf num IPs: 1
percent60: inf num IPs: 1
percent65: inf num IPs: 1
percent70: inf num IPs: 1
percent75: inf num IPs: 1
percent80: inf num IPs: 1
percent85: inf num IPs: 1
percent90: inf num IPs: 1
Critical_ROB_Stalls_Percent_0_Bucket_0: 5
Non-critical_ROB_Stalls_Percent_0_Bucket_0: 921260
Critical_ROB_Stalls_Percent_0_Bucket_1: 16
Non-critical_ROB_Stalls_Percent_0_Bucket_1: 980069
Critical_ROB_Stalls_Percent_0_Bucket_2: 15464
Non-critical_ROB_Stalls_Percent_0_Bucket_2: 435906
Critical_ROB_Stalls_Percent_0_Bucket_3: 23799
Non-critical_ROB_Stalls_Percent_0_Bucket_3: 128661
Critical_ROB_Stalls_Percent_0_Bucket_4: 16398
Non-critical_ROB_Stalls_Percent_0_Bucket_4: 77977
Critical_ROB_Stalls_Percent_0_Bucket_5: 24694
Non-critical_ROB_Stalls_Percent_0_Bucket_5: 64338
Critical_ROB_Stalls_Percent_0_Bucket_6: 70791
Non-critical_ROB_Stalls_Percent_0_Bucket_6: 217839
Critical_ROB_Stalls_Percent_1_Bucket_0: 5
Non-critical_ROB_Stalls_Percent_1_Bucket_0: 921260
Critical_ROB_Stalls_Percent_1_Bucket_1: 16
Non-critical_ROB_Stalls_Percent_1_Bucket_1: 980069
Critical_ROB_Stalls_Percent_1_Bucket_2: 15464
Non-critical_ROB_Stalls_Percent_1_Bucket_2: 435906
Critical_ROB_Stalls_Percent_1_Bucket_3: 23799
Non-critical_ROB_Stalls_Percent_1_Bucket_3: 128661
Critical_ROB_Stalls_Percent_1_Bucket_4: 16398
Non-critical_ROB_Stalls_Percent_1_Bucket_4: 77977
Critical_ROB_Stalls_Percent_1_Bucket_5: 24694
Non-critical_ROB_Stalls_Percent_1_Bucket_5: 64338
Critical_ROB_Stalls_Percent_1_Bucket_6: 70791
Non-critical_ROB_Stalls_Percent_1_Bucket_6: 217839
Critical_ROB_Stalls_Percent_2_Bucket_0: 5
Non-critical_ROB_Stalls_Percent_2_Bucket_0: 921260
Critical_ROB_Stalls_Percent_2_Bucket_1: 16
Non-critical_ROB_Stalls_Percent_2_Bucket_1: 980069
Critical_ROB_Stalls_Percent_2_Bucket_2: 15464
Non-critical_ROB_Stalls_Percent_2_Bucket_2: 435906
Critical_ROB_Stalls_Percent_2_Bucket_3: 23799
Non-critical_ROB_Stalls_Percent_2_Bucket_3: 128661
Critical_ROB_Stalls_Percent_2_Bucket_4: 16398
Non-critical_ROB_Stalls_Percent_2_Bucket_4: 77977
Critical_ROB_Stalls_Percent_2_Bucket_5: 24694
Non-critical_ROB_Stalls_Percent_2_Bucket_5: 64338
Critical_ROB_Stalls_Percent_2_Bucket_6: 70791
Non-critical_ROB_Stalls_Percent_2_Bucket_6: 217839
Critical_ROB_Stalls_Percent_3_Bucket_0: 5
Non-critical_ROB_Stalls_Percent_3_Bucket_0: 921260
Critical_ROB_Stalls_Percent_3_Bucket_1: 16
Non-critical_ROB_Stalls_Percent_3_Bucket_1: 980069
Critical_ROB_Stalls_Percent_3_Bucket_2: 15464
Non-critical_ROB_Stalls_Percent_3_Bucket_2: 435906
Critical_ROB_Stalls_Percent_3_Bucket_3: 23799
Non-critical_ROB_Stalls_Percent_3_Bucket_3: 128661
Critical_ROB_Stalls_Percent_3_Bucket_4: 16398
Non-critical_ROB_Stalls_Percent_3_Bucket_4: 77977
Critical_ROB_Stalls_Percent_3_Bucket_5: 24694
Non-critical_ROB_Stalls_Percent_3_Bucket_5: 64338
Critical_ROB_Stalls_Percent_3_Bucket_6: 70791
Non-critical_ROB_Stalls_Percent_3_Bucket_6: 217839
Critical_ROB_Stalls_Percent_4_Bucket_0: 5
Non-critical_ROB_Stalls_Percent_4_Bucket_0: 921260
Critical_ROB_Stalls_Percent_4_Bucket_1: 16
Non-critical_ROB_Stalls_Percent_4_Bucket_1: 980069
Critical_ROB_Stalls_Percent_4_Bucket_2: 15464
Non-critical_ROB_Stalls_Percent_4_Bucket_2: 435906
Critical_ROB_Stalls_Percent_4_Bucket_3: 23799
Non-critical_ROB_Stalls_Percent_4_Bucket_3: 128661
Critical_ROB_Stalls_Percent_4_Bucket_4: 16398
Non-critical_ROB_Stalls_Percent_4_Bucket_4: 77977
Critical_ROB_Stalls_Percent_4_Bucket_5: 24694
Non-critical_ROB_Stalls_Percent_4_Bucket_5: 64338
Critical_ROB_Stalls_Percent_4_Bucket_6: 70791
Non-critical_ROB_Stalls_Percent_4_Bucket_6: 217839
Critical_ROB_Stalls_Percent_5_Bucket_0: 5
Non-critical_ROB_Stalls_Percent_5_Bucket_0: 921260
Critical_ROB_Stalls_Percent_5_Bucket_1: 16
Non-critical_ROB_Stalls_Percent_5_Bucket_1: 980069
Critical_ROB_Stalls_Percent_5_Bucket_2: 15464
Non-critical_ROB_Stalls_Percent_5_Bucket_2: 435906
Critical_ROB_Stalls_Percent_5_Bucket_3: 23799
Non-critical_ROB_Stalls_Percent_5_Bucket_3: 128661
Critical_ROB_Stalls_Percent_5_Bucket_4: 16398
Non-critical_ROB_Stalls_Percent_5_Bucket_4: 77977
Critical_ROB_Stalls_Percent_5_Bucket_5: 24694
Non-critical_ROB_Stalls_Percent_5_Bucket_5: 64338
Critical_ROB_Stalls_Percent_5_Bucket_6: 70791
Non-critical_ROB_Stalls_Percent_5_Bucket_6: 217839
Critical_ROB_Stalls_Percent_6_Bucket_0: 5
Non-critical_ROB_Stalls_Percent_6_Bucket_0: 921260
Critical_ROB_Stalls_Percent_6_Bucket_1: 16
Non-critical_ROB_Stalls_Percent_6_Bucket_1: 980069
Critical_ROB_Stalls_Percent_6_Bucket_2: 15464
Non-critical_ROB_Stalls_Percent_6_Bucket_2: 435906
Critical_ROB_Stalls_Percent_6_Bucket_3: 23799
Non-critical_ROB_Stalls_Percent_6_Bucket_3: 128661
Critical_ROB_Stalls_Percent_6_Bucket_4: 16398
Non-critical_ROB_Stalls_Percent_6_Bucket_4: 77977
Critical_ROB_Stalls_Percent_6_Bucket_5: 24694
Non-critical_ROB_Stalls_Percent_6_Bucket_5: 64338
Critical_ROB_Stalls_Percent_6_Bucket_6: 70791
Non-critical_ROB_Stalls_Percent_6_Bucket_6: 217839
Critical_ROB_Stalls_Percent_7_Bucket_0: 5
Non-critical_ROB_Stalls_Percent_7_Bucket_0: 921260
Critical_ROB_Stalls_Percent_7_Bucket_1: 16
Non-critical_ROB_Stalls_Percent_7_Bucket_1: 980069
Critical_ROB_Stalls_Percent_7_Bucket_2: 15464
Non-critical_ROB_Stalls_Percent_7_Bucket_2: 435906
Critical_ROB_Stalls_Percent_7_Bucket_3: 23799
Non-critical_ROB_Stalls_Percent_7_Bucket_3: 128661
Critical_ROB_Stalls_Percent_7_Bucket_4: 16398
Non-critical_ROB_Stalls_Percent_7_Bucket_4: 77977
Critical_ROB_Stalls_Percent_7_Bucket_5: 24694
Non-critical_ROB_Stalls_Percent_7_Bucket_5: 64338
Critical_ROB_Stalls_Percent_7_Bucket_6: 70791
Non-critical_ROB_Stalls_Percent_7_Bucket_6: 217839
Critical_ROB_Stalls_Percent_8_Bucket_0: 5
Non-critical_ROB_Stalls_Percent_8_Bucket_0: 921260
Critical_ROB_Stalls_Percent_8_Bucket_1: 16
Non-critical_ROB_Stalls_Percent_8_Bucket_1: 980069
Critical_ROB_Stalls_Percent_8_Bucket_2: 15464
Non-critical_ROB_Stalls_Percent_8_Bucket_2: 435906
Critical_ROB_Stalls_Percent_8_Bucket_3: 23799
Non-critical_ROB_Stalls_Percent_8_Bucket_3: 128661
Critical_ROB_Stalls_Percent_8_Bucket_4: 16398
Non-critical_ROB_Stalls_Percent_8_Bucket_4: 77977
Critical_ROB_Stalls_Percent_8_Bucket_5: 24694
Non-critical_ROB_Stalls_Percent_8_Bucket_5: 64338
Critical_ROB_Stalls_Percent_8_Bucket_6: 70791
Non-critical_ROB_Stalls_Percent_8_Bucket_6: 217839
Average ROB occupancy Load Stall Begin: 100.986
Average ROB occupancy Load Stall End: 109.38
Min ROB occupancy Load Stall Begin: 1
Max ROB occupancy Load Stall Begin: 352
Min ROB occupancy Load Stall End: 1
Max ROB occupancy Load Stall End: 352
Average ROB occupancy Critical Load Stall Begin: -nan
Average ROB occupancy Critical Load Stall End: -nan
Min ROB occupancy Critical Load Stall Begin: 400
Max ROB occupancy Critical Load Stall Begin: 0
Min ROB occupancy Critical Load Stall End: 400
Max ROB occupancy Critical Load Stall End: 0
 ROB Load Stall Begin Bucket Count 0: 1223180
 ROB Load Stall End Bucket Count 0: 921265
 ROB Critical Load Stall Begin Bucket Count 0: 0
 ROB Critical Load Stall End Bucket Count 0: 0
 ROB Load Stall Begin Bucket Count 1: 807954
 ROB Load Stall End Bucket Count 1: 980085
 ROB Critical Load Stall Begin Bucket Count 1: 0
 ROB Critical Load Stall End Bucket Count 1: 0
 ROB Load Stall Begin Bucket Count 2: 349962
 ROB Load Stall End Bucket Count 2: 451370
 ROB Critical Load Stall Begin Bucket Count 2: 0
 ROB Critical Load Stall End Bucket Count 2: 0
 ROB Load Stall Begin Bucket Count 3: 135010
 ROB Load Stall End Bucket Count 3: 152460
 ROB Critical Load Stall Begin Bucket Count 3: 0
 ROB Critical Load Stall End Bucket Count 3: 0
 ROB Load Stall Begin Bucket Count 4: 89660
 ROB Load Stall End Bucket Count 4: 94375
 ROB Critical Load Stall Begin Bucket Count 4: 0
 ROB Critical Load Stall End Bucket Count 4: 0
 ROB Load Stall Begin Bucket Count 5: 90378
 ROB Load Stall End Bucket Count 5: 89032
 ROB Critical Load Stall Begin Bucket Count 5: 0
 ROB Critical Load Stall End Bucket Count 5: 0
 ROB Load Stall Begin Bucket Count 6: 281073
 ROB Load Stall End Bucket Count 6: 288630
 ROB Critical Load Stall Begin Bucket Count 6: 0
 ROB Critical Load Stall End Bucket Count 6: 0
PIST Tag Read Accesses: 0
PIST Read Accesses: 0
PIST Tag Write Accesses: 0
PIST Write Accesses: 0
Criticality detector called times: 0
Max global_stall_cycles_count: 0
Threshold Modified: 0 times, factor: 0
ITLB TOTAL     ACCESS:   10458789  HIT:   10059907  MISS:     398882  HIT %:    96.1862  MISS %:    3.81384   MPKI: 7.97764
ITLB LOAD TRANSLATION ACCESS:    8223163  HIT:    8186940  MISS:      36223  HIT %:    99.5595  MISS %:     0.4405   MPKI: 0.72446
ITLB TRANSLATION FROM L1D PREFETCHER ACCESS:    2235626  HIT:    1872967  MISS:     362659  HIT %:    83.7782  MISS %:    16.2218   MPKI: 7.25318
ITLB PREFETCH  REQUESTED:          0  ISSUED:          0  USEFUL:     326141  USELESS:      36518
ITLB USEFUL LOAD PREFETCHES:     326141 PREFETCH ISSUED TO LOWER LEVEL:          0  ACCURACY: inf
ITLB TIMELY PREFETCHES:     326141 LATE PREFETCHES: 173 DROPPED PREFETCHES: 29
ITLB PREFETCHES SAME FILL-ORIGIN LEVEL: 0 DIFFERENT FILL-ORIGIN LEVEL: 0
ITLB AVERAGE MISS LATENCY: 19844.9 cycles
ITLB RQ	ACCESS:   15394597	FORWARD:          0	MERGED:    4895367	TO_CACHE:   10499230

DTLB TOTAL     ACCESS:   10786113  HIT:   10595867  MISS:     190246  HIT %:    98.2362  MISS %:     1.7638   MPKI: 3.80492
DTLB LOAD TRANSLATION ACCESS:   10786113  HIT:   10595867  MISS:     190246  HIT %:    98.2362  MISS %:     1.7638   MPKI: 3.80492
DTLB PREFETCH  REQUESTED:          0  ISSUED:          0  USEFUL:          0  USELESS:          0
DTLB USEFUL LOAD PREFETCHES:          0 PREFETCH ISSUED TO LOWER LEVEL:          0  ACCURACY: -nan
DTLB TIMELY PREFETCHES:          0 LATE PREFETCHES: 0 DROPPED PREFETCHES: 0
DTLB PREFETCHES SAME FILL-ORIGIN LEVEL: 0 DIFFERENT FILL-ORIGIN LEVEL: 0
DTLB AVERAGE MISS LATENCY: 9.75772 cycles
DTLB RQ	ACCESS:   15646614	FORWARD:          0	MERGED:    4845141	TO_CACHE:   10801473

STLB TOTAL     ACCESS:     589128  HIT:     587882  MISS:       1246  HIT %:    99.7885  MISS %:   0.211499   MPKI: 0.02492
STLB LOAD TRANSLATION ACCESS:     226296  HIT:     225116  MISS:       1180  HIT %:    99.4786  MISS %:   0.521441   MPKI: 0.0236
STLB TRANSLATION FROM L1D PREFETCHER ACCESS:     362832  HIT:     362766  MISS:         66  HIT %:    99.9818  MISS %:  0.0181902   MPKI: 0.00132
STLB PREFETCH  REQUESTED:          0  ISSUED:          0  USEFUL:         58  USELESS:          3
STLB USEFUL LOAD PREFETCHES:         58 PREFETCH ISSUED TO LOWER LEVEL:          0  ACCURACY: inf
STLB TIMELY PREFETCHES:         58 LATE PREFETCHES: 0 DROPPED PREFETCHES: 29
STLB PREFETCHES SAME FILL-ORIGIN LEVEL: 0 DIFFERENT FILL-ORIGIN LEVEL: 0
STLB AVERAGE MISS LATENCY: 136.314 cycles
STLB RQ	ACCESS:     589157	FORWARD:          0	MERGED:          0	TO_CACHE:     589157

STLB Hit, L1D data hit: 0
STLB Hit, L2C data hit: 0
STLB Hit, LLC data hit: 0
STLB Hit, LLC data miss: 0
STLB STLB hints to L2: 0
L1D TOTAL     ACCESS:   15587538  HIT:   15526068  MISS:      61470  HIT %:    99.6056  MISS %:   0.394353   MPKI: 1.2294
L1D LOAD      ACCESS:    7128051  HIT:    7098828  MISS:      29223  HIT %:      99.59  MISS %:   0.409972   MPKI: 0.58446
L1D RFO       ACCESS:    8459487  HIT:    8427240  MISS:      32247  HIT %:    99.6188  MISS %:   0.381193   MPKI: 0.64494
L1D PREFETCH  REQUESTED:          0  ISSUED:          0  USEFUL:          0  USELESS:          0
L1D USEFUL LOAD PREFETCHES:          0 PREFETCH ISSUED TO LOWER LEVEL:          0  ACCURACY: -nan
L1D TIMELY PREFETCHES:          0 LATE PREFETCHES: 0 DROPPED PREFETCHES: 0
L1D PREFETCHES SAME FILL-ORIGIN LEVEL: 0 DIFFERENT FILL-ORIGIN LEVEL: 0
L1D AVERAGE MISS LATENCY: 209.307 cycles
L1D RQ	ACCESS:   11277630	FORWARD:          0	MERGED:    3983313	TO_CACHE:    7133323
L1D WQ	ACCESS:    8638567	FORWARD:     160994	MERGED:     125276	TO_CACHE:    8513291

L1D UNIQUE REGIONS ACCESSED: 0
L1D REGIONS CONFLICTS: 0
L1D Cross Page Prefetch Requests: 0
L1D Same Page Prefetch Requests: 0
L1D ROI Sum of L1D PQ occupancy: 0
L1D PREFETCHES PUSHED FROM L2C: 0
L1I TOTAL     ACCESS:   15340124  HIT:   13220644  MISS:    2119480  HIT %:    86.1834  MISS %:    13.8166   MPKI: 42.3896
L1I LOAD      ACCESS:    9542753  HIT:    9511030  MISS:      31723  HIT %:    99.6676  MISS %:    0.33243   MPKI: 0.63446
L1I PREFETCH  ACCESS:    5797371  HIT:    3709614  MISS:    2087757  HIT %:    63.9879  MISS %:    36.0121   MPKI: 41.7551
L1I PREFETCH  REQUESTED:    6064621  ISSUED:    6062656  USEFUL:    1814038  USELESS:     273729
L1I USEFUL LOAD PREFETCHES:    1814038 PREFETCH ISSUED TO LOWER LEVEL:    2098974  ACCURACY: 86.425
L1I TIMELY PREFETCHES:    1814038 LATE PREFETCHES: 11217 DROPPED PREFETCHES: 35
L1I PREFETCHES SAME FILL-ORIGIN LEVEL: 2098974 DIFFERENT FILL-ORIGIN LEVEL: 0
L1I AVERAGE MISS LATENCY: 267200 cycles
L1I RQ	ACCESS:   13786300	FORWARD:          0	MERGED:    4238681	TO_CACHE:    9547619
L1I PQ	ACCESS:    6062656	FORWARD:          0	MERGED:     215678	TO_CACHE:    5846978

BTB TOTAL     ACCESS:    5705846  HIT:    5254646  MISS:     451200  HIT %:    92.0923  MISS %:    7.90768   MPKI: 9.024
BTB BRANCH_DIRECT_JUMP	ACCESS:     449415  HIT:     448069  MISS:       1346
BTB BRANCH_INDIRECT	ACCESS:       2330  HIT:       2200  MISS:        130
BTB BRANCH_CONDITIONAL	ACCESS:    2664995  HIT:    2660208  MISS:       4787
BTB BRANCH_DIRECT_CALL	ACCESS:    1172178  HIT:    1168562  MISS:       3616
BTB BRANCH_INDIRECT_CALL	ACCESS:     122383  HIT:     109013  MISS:      13370
BTB BRANCH_RETURN	ACCESS:    1294545  HIT:     866594  MISS:     427951
BTB BRANCH_OTHER ACCESS:          0  HIT:          0  MISS:          0

L2C TOTAL     ACCESS:    2225463  HIT:    2155002  MISS:      70461  HIT %:    96.8339  MISS %:    3.16613   MPKI: 1.40922
L2C LOAD      ACCESS:      49729  HIT:      23542  MISS:      26187  HIT %:    47.3406  MISS %:    52.6594   MPKI: 0.52374
L2C DATA LOAD MPKI: 0.43906
L2C INSTRUCTION LOAD MPKI: 0.08468
L2C RFO       ACCESS:      32247  HIT:       1074  MISS:      31173  HIT %:    3.33054  MISS %:    96.6695   MPKI: 0.62346
L2C PREFETCH  ACCESS:    2104193  HIT:    2093047  MISS:      11146  HIT %:    99.4703  MISS %:   0.529704   MPKI: 0.22292
L2C DATA PREFETCH MPKI: 0.0327
L2C INSTRUCTION PREFETCH MPKI: 0.19022
L2C WRITEBACK ACCESS:      37836  HIT:      36585  MISS:       1251  HIT %:    96.6936  MISS %:    3.30637   MPKI: 0.02502
L2C LOAD TRANSLATION ACCESS:       1347  HIT:        688  MISS:        659  HIT %:    51.0765  MISS %:    48.9235   MPKI: 0.01318
L2C TRANSLATION FROM L1D PREFETCHER ACCESS:        111  HIT:         66  MISS:         45  HIT %:    59.4595  MISS %:    40.5405   MPKI: 0.0009
L2C PREFETCH  REQUESTED:     132411  ISSUED:     130097  USEFUL:       2419  USELESS:       8538
L2C USEFUL LOAD PREFETCHES:       2419 PREFETCH ISSUED TO LOWER LEVEL:      66791  ACCURACY: 3.62175
L2C TIMELY PREFETCHES:       2419 LATE PREFETCHES: 3597 DROPPED PREFETCHES: 0
L2C PREFETCHES SAME FILL-ORIGIN LEVEL: 5232 DIFFERENT FILL-ORIGIN LEVEL: 52048
L2C AVERAGE MISS LATENCY: 192.614 cycles
L2C RQ	ACCESS:      83434	FORWARD:          0	MERGED:          0	TO_CACHE:      83434
L2C WQ	ACCESS:      37836	FORWARD:          0	MERGED:          0	TO_CACHE:      37836
L2C PQ	ACCESS:    2229071	FORWARD:          0	MERGED:      63122	TO_CACHE:    2165949

L2C Instructions Evicting Data 11173
L2C Translations Evicting Data 559
L2C Data Evicting Data 43354
L2C Instructions Evicting Instructions 2430
L2C Translations Evicting Instructions 134
L2C Data Evicting Instructions 10880
L2C Instructions Evicting Translations 142
L2C Translations Evicting Translations 11
L2C Data Evicting Translations 527
L2C Dense regions hint from L2: 0
PSCL5 TOTAL     ACCESS:       1275  HIT:       1275  MISS:          0  HIT %:        100  MISS %:          0   MPKI: 0
PSCL5 LOAD TRANSLATION ACCESS:       1180  HIT:       1180  MISS:          0  HIT %:        100  MISS %:          0   MPKI: 0
PSCL5 TRANSLATION FROM L1D PREFETCHER ACCESS:         95  HIT:         95  MISS:          0  HIT %:        100  MISS %:          0   MPKI: 0
PSCL5 PREFETCH  REQUESTED:          0  ISSUED:          0  USEFUL:          0  USELESS:          0
PSCL5 USEFUL LOAD PREFETCHES:          0 PREFETCH ISSUED TO LOWER LEVEL:          0  ACCURACY: -nan
PSCL5 TIMELY PREFETCHES:          0 LATE PREFETCHES: 0 DROPPED PREFETCHES: 0
PSCL5 PREFETCHES SAME FILL-ORIGIN LEVEL: 0 DIFFERENT FILL-ORIGIN LEVEL: 0

PSCL4 TOTAL     ACCESS:       1017  HIT:       1007  MISS:         10  HIT %:    99.0167  MISS %:   0.983284   MPKI: 0.0002
PSCL4 LOAD TRANSLATION ACCESS:        937  HIT:        927  MISS:         10  HIT %:    98.9328  MISS %:    1.06724   MPKI: 0.0002
PSCL4 TRANSLATION FROM L1D PREFETCHER ACCESS:         80  HIT:         80  MISS:          0  HIT %:        100  MISS %:          0   MPKI: 0
PSCL4 PREFETCH  REQUESTED:          0  ISSUED:          0  USEFUL:          0  USELESS:          0
PSCL4 USEFUL LOAD PREFETCHES:          0 PREFETCH ISSUED TO LOWER LEVEL:          0  ACCURACY: -nan
PSCL4 TIMELY PREFETCHES:          0 LATE PREFETCHES: 0 DROPPED PREFETCHES: 0
PSCL4 PREFETCHES SAME FILL-ORIGIN LEVEL: 0 DIFFERENT FILL-ORIGIN LEVEL: 0

PSCL3 TOTAL     ACCESS:       1193  HIT:       1183  MISS:         10  HIT %:    99.1618  MISS %:   0.838223   MPKI: 0.0002
PSCL3 LOAD TRANSLATION ACCESS:       1113  HIT:       1103  MISS:         10  HIT %:    99.1015  MISS %:   0.898473   MPKI: 0.0002
PSCL3 TRANSLATION FROM L1D PREFETCHER ACCESS:         80  HIT:         80  MISS:          0  HIT %:        100  MISS %:          0   MPKI: 0
PSCL3 PREFETCH  REQUESTED:          0  ISSUED:          0  USEFUL:          0  USELESS:          0
PSCL3 USEFUL LOAD PREFETCHES:          0 PREFETCH ISSUED TO LOWER LEVEL:          0  ACCURACY: -nan
PSCL3 TIMELY PREFETCHES:          0 LATE PREFETCHES: 0 DROPPED PREFETCHES: 0
PSCL3 PREFETCHES SAME FILL-ORIGIN LEVEL: 0 DIFFERENT FILL-ORIGIN LEVEL: 0

PSCL2 TOTAL     ACCESS:       1271  HIT:       1120  MISS:        151  HIT %:    88.1196  MISS %:    11.8804   MPKI: 0.00302
PSCL2 LOAD TRANSLATION ACCESS:       1184  HIT:       1033  MISS:        151  HIT %:    87.2466  MISS %:    12.7534   MPKI: 0.00302
PSCL2 TRANSLATION FROM L1D PREFETCHER ACCESS:         87  HIT:         87  MISS:          0  HIT %:        100  MISS %:          0   MPKI: 0
PSCL2 PREFETCH  REQUESTED:          0  ISSUED:          0  USEFUL:          0  USELESS:          0
PSCL2 USEFUL LOAD PREFETCHES:          0 PREFETCH ISSUED TO LOWER LEVEL:          0  ACCURACY: -nan
PSCL2 TIMELY PREFETCHES:          0 LATE PREFETCHES: 0 DROPPED PREFETCHES: 0
PSCL2 PREFETCHES SAME FILL-ORIGIN LEVEL: 0 DIFFERENT FILL-ORIGIN LEVEL: 0

LLC TOTAL     ACCESS:     127152  HIT:      79966  MISS:      47186  HIT %:    62.8901  MISS %:    37.1099   MPKI: 0.94372
LLC LOAD      ACCESS:      22590  HIT:      10212  MISS:      12378  HIT %:    45.2058  MISS %:    54.7942   MPKI: 0.24756
LLC RFO       ACCESS:      31173  HIT:       9099  MISS:      22074  HIT %:    29.1887  MISS %:    70.8113   MPKI: 0.44148
LLC PREFETCH  ACCESS:      38082  HIT:      26454  MISS:      11628  HIT %:    69.4659  MISS %:    30.5341   MPKI: 0.23256
LLC WRITEBACK ACCESS:      34603  HIT:      33935  MISS:        668  HIT %:    98.0695  MISS %:    1.93047   MPKI: 0.01336
LLC LOAD TRANSLATION ACCESS:        659  HIT:        238  MISS:        421  HIT %:    36.1153  MISS %:    63.8847   MPKI: 0.00842
LLC TRANSLATION FROM L1D PREFETCHER ACCESS:         45  HIT:         28  MISS:         17  HIT %:    62.2222  MISS %:    37.7778   MPKI: 0.00034
LLC PREFETCH  REQUESTED:          0  ISSUED:          0  USEFUL:       4140  USELESS:       4411
LLC USEFUL LOAD PREFETCHES:       4140 PREFETCH ISSUED TO LOWER LEVEL:      14494  ACCURACY: 28.5635
LLC TIMELY PREFETCHES:       4140 LATE PREFETCHES: 2866 DROPPED PREFETCHES: 0
LLC PREFETCHES SAME FILL-ORIGIN LEVEL: 10760 DIFFERENT FILL-ORIGIN LEVEL: 0
LLC AVERAGE MISS LATENCY: 297.727 cycles
LLC RQ	ACCESS:      54467	FORWARD:          0	MERGED:          0	TO_CACHE:      54467
LLC WQ	ACCESS:      34603	FORWARD:          0	MERGED:          0	TO_CACHE:      34603
LLC PQ	ACCESS:      66791	FORWARD:          0	MERGED:       7117	TO_CACHE:      59674

LLC Dense regions hint to LLC: 0

RAW hits: 1534765
Loads Generated: 12812392
Loads sent to L1D: 11277630
Stores Generated: 8638565
Stores sent to L1D: 8638567
Major fault: 0 Minor fault: 2022
Allocated PAGES: 2022
I-Shadow cache 408 bytes
Touched + WorthPF tables 6144 bytes 
MMA filter 174 bytes 
FNL filter 272 bytes 
TOTAL PREFETCHER STORAGE SIZE: 25174 bytes
CPU 0 L1I next line prefetcher final stats
 All Calls: 4227380
 Critical Calls: 21097
------------------
Depth Distribution
------------------
depth 0: 0
depth 1: 15118
depth 2: 13809
depth 3: 13430
depth 4: 13102
depth 5: 12755
depth 6: 12377
depth 7: 11944
depth 8: 10855
depth 9: 9359
depth 10: 7743
depth 11: 5338
depth 12: 3121
depth 13: 1233
depth 14: 1
depth 15: 1
depth 16: 1
depth 17: 0
depth 18: 0
depth 19: 0
depth 20: 0
depth 21: 0
depth 22: 0
depth 23: 0
depth 24: 0
depth 25: 0
depth 26: 0
depth 27: 0
depth 28: 0
depth 29: 0
Total: 130187
-----------------------------
-----------------------------
	Captured at Filter
-----------------------------
depth 0: 0
depth 1: 73
depth 2: 52
depth 3: 42
depth 4: 42
depth 5: 41
depth 6: 41
depth 7: 40
depth 8: 34
depth 9: 32
depth 10: 27
depth 11: 13
depth 12: 11
depth 13: 7
depth 14: 0
depth 15: 0
depth 16: 0
depth 17: 0
depth 18: 0
depth 19: 0
depth 20: 0
depth 21: 0
depth 22: 0
depth 23: 0
depth 24: 0
depth 25: 0
depth 26: 0
depth 27: 0
depth 28: 0
depth 29: 0
-----------------------------
-----------------------------
		Lost at Page
-----------------------------
depth 0: 0
depth 1: 278
depth 2: 483
depth 3: 717
depth 4: 941
depth 5: 1167
depth 6: 1391
depth 7: 1616
depth 8: 1738
depth 9: 1728
depth 10: 1634
depth 11: 1302
depth 12: 889
depth 13: 403
depth 14: 0
depth 15: 0
depth 16: 0
depth 17: 0
depth 18: 0
depth 19: 0
depth 20: 0
depth 21: 0
depth 22: 0
depth 23: 0
depth 24: 0
depth 25: 0
depth 26: 0
depth 27: 0
depth 28: 0
depth 29: 0
-----------------------------
-----------------------------
	Lost due to PQ Size
-----------------------------
2314
-----------------------------
ST read accesses: 18535
ST write accesses: 831
PT read accesses: 849210
PT write accesses: 25196
FILTER read accesses: 222677
FILTER write accesses: 90238
GHR read accesses: 77017
GHR write accesses: 14283
GHR counter read accesses: 703504
GHR counter write accesses: 39208
ST tag read accesses: 7619013
ST tag write accesses: 328856

DRAM Statistics
 CHANNEL 0
 RQ ROW_BUFFER_HIT:      19541  ROW_BUFFER_MISS:      26977
 DBUS_CONGESTED:          8
 WQ ROW_BUFFER_HIT:       6457  ROW_BUFFER_MISS:      21319  FULL:          0

 AVG_CONGESTED_CYCLE: 3
 All warmup complete: 2
Channel 0 Bank busy for read cycles: 0
Channel 0 Bank busy for write cycles: 0
Channel 0
Rank 0
0banks busy for read cycles: 65023833
0banks busy for write cycles: 1711
1banks busy for read cycles: 585177
1banks busy for write cycles: 218039
2banks busy for read cycles: 323597
2banks busy for write cycles: 174712
3banks busy for read cycles: 151409
3banks busy for write cycles: 108771
4banks busy for read cycles: 73026
4banks busy for write cycles: 65147
5banks busy for read cycles: 60230
5banks busy for write cycles: 50665
6banks busy for read cycles: 61347
6banks busy for write cycles: 54876
7banks busy for read cycles: 80572
7banks busy for write cycles: 82482
8banks busy for read cycles: 247315
8banks busy for write cycles: 358819

CPU 0 Branch Prediction Accuracy: 99.7719% MPKI: 0.38824 Average ROB Occupancy at Mispredict: 47.7374
Branch types
NOT_BRANCH: 41488827 82.9776%
BRANCH_DIRECT_JUMP: 449415 0.89883%
BRANCH_INDIRECT: 2330 0.00466%
BRANCH_CONDITIONAL: 5470003 10.94%
BRANCH_DIRECT_CALL: 1172178 2.34436%
BRANCH_INDIRECT_CALL: 122383 0.244766%
BRANCH_RETURN: 1294545 2.58909%
BRANCH_OTHER: 0 0%

DRAM PAGES: 1048576
Allocated PAGES: 2022
