Initialize SIGNATURE TABLE
ST_SET: 1
ST_WAY: 256
ST_TAG_BIT: 16
ST_TAG_MASK: ffff

Initialize PATTERN TABLE
PT_SET: 512
PT_WAY: 4
SIG_DELTA_BIT: 7
C_SIG_BIT: 4
C_DELTA_BIT: 4

Initialize PREFETCH FILTER
FILTER_SET: 1024

*** ChampSim Multicore Out-of-Order Simulator ***

Warmup Instructions: 50000000
Simulation Instructions: 50000000
Number of CPUs: 1
LLC sets: 2048
LLC ways: 16
Off-chip DRAM Size: 4096 MB Channels: 1 Width: 64-bit Data Rate: 6400 MT/s
CPU 0 runs ../IPC-traces//server_034.champsimtrace.xz
.xz
NUM_OF_IPS_IN_CRITICAL_IP_TRAINING: 64
NUM_OF_CRITICAL_IP_TRAINING_TABLE_WAYS: 2
NUM_OF_CRITICAL_IP_TRAINING_TABLE_SETS: 32
WOBBLY_CRITICAL_IP_CACHE_SETS: 32
WOBBLY_CRITICAL_IP_CACHE_WAYS: 4
BTB has LRU replacement policy
ITLB has LRU replacement policy
DTLB has LRU replacement policy
STLB has LRU replacement policy
CPU 0 L1I next line prefetcher
L1I has LRU replacement policy
L1D has LRU replacement policy
ST_WAYS: 256
PT_SETS: 512
Initialize SRRIP state for L2C
Initialize DRRIP state for LLC
Heartbeat CPU 0 instructions: 10000000 cycles: 2760217 heartbeat IPC: 3.6229 cumulative IPC: 3.6229 (Simulation time: 0 hr 3 min 39 sec) 
Heartbeat CPU 0 instructions: 20000000 cycles: 5515308 heartbeat IPC: 3.62964 cumulative IPC: 3.62627 (Simulation time: 0 hr 6 min 27 sec) 
Heartbeat CPU 0 instructions: 30000003 cycles: 8274946 heartbeat IPC: 3.62366 cumulative IPC: 3.6254 (Simulation time: 0 hr 9 min 3 sec) 
Heartbeat CPU 0 instructions: 40000001 cycles: 11033745 heartbeat IPC: 3.62476 cumulative IPC: 3.62524 (Simulation time: 0 hr 11 min 28 sec) 
Heartbeat CPU 0 instructions: 50000000 cycles: 13792024 heartbeat IPC: 3.62545 cumulative IPC: 3.62528 (Simulation time: 0 hr 13 min 35 sec) 

Warmup complete CPU 0 instructions: 50000002 cycles: 13792025 (Simulation time: 0 hr 13 min 35 sec) 

% increase in all ip prefetch 322.322
% increase in all ip prefetch -0.116477
Heartbeat CPU 0 instructions: 60000002 cycles: 26339962 heartbeat IPC: 0.796944 cumulative IPC: 0.796944 (Simulation time: 0 hr 16 min 1 sec) 
Heartbeat CPU 0 instructions: 70000003 cycles: 39073954 heartbeat IPC: 0.7853 cumulative IPC: 0.791079 (Simulation time: 0 hr 18 min 31 sec) 
Heartbeat CPU 0 instructions: 80000001 cycles: 51620217 heartbeat IPC: 0.79705 cumulative IPC: 0.793059 (Simulation time: 0 hr 20 min 59 sec) 
Heartbeat CPU 0 instructions: 90000002 cycles: 64164307 heartbeat IPC: 0.797188 cumulative IPC: 0.794088 (Simulation time: 0 hr 23 min 26 sec) 
Heartbeat CPU 0 instructions: 100000003 cycles: 76788532 heartbeat IPC: 0.792128 cumulative IPC: 0.793695 (Simulation time: 0 hr 25 min 35 sec) 
Finished CPU 0 instructions: 50000001 cycles: 62996507 cumulative IPC: 0.793695 (Simulation time: 0 hr 25 min 35 sec) 

ChampSim completed all CPUs

Region of Interest Statistics

CPU 0 cumulative IPC: 0.793695 instructions: 50000001 cycles: 62996507

CPU 0 Average Load ROB stall cycles: 1.65129e+07
CPU 0 Fraction of times ROB stalled by Loads: 36.4536
CPU 0 Percentage of Load stall cycles in Total stall cycles: 2.52374e+08
Issued all: 26356446
Issued LT all: 20580293
rob_not_full_when_issued_lt_all: 20200530
Issued LT one: 15490270
rob_not_full_when_issued_lt_one: 15167155
critical_ip_candidate_identification_operations: 5688876
critical_ip_candidate_identification_operation_per_cycle: 0.0903046
 Total stall cycles: 51054628
 Total load stall cycles: 128848476017913
Unique Load IPs: 8292
CPU 0 NUM of IPS identified critical: 13
CPU 0 Num of Load IPs stalling ROB: 6893
Threshold modification factor: -1
Max PIST entries: 64
Min PIST entries: 0
Avg PIST entries: 32
Trouble in retire width: 0.861597
MaC = Marked as critical.
lt_50_percent_before_Mac: 11
gt_90_percent_before_Mac: 1
gt_75_percent_before_Mac: 0
gt_50_percent_before_Mac: 1
stall_proportion_bin_same_before_after: 0
stall_proportion_bin_lower_before_after: 0
stall_proportion_bin_upper_before_after: 0
average_stall_proportion_before: 0.0583336
average_stall_proportion_after: 0.0581617
Critical IP stalls, total frequency: 18023
Non-critical IP stalls, total frequency: 2826415
Total Freq all stalling IPs: 2844438
Critical_IP_Detector_Accuracy_70: 0.461538
Critical_IP_Detector_Accuracy_80: 0.461538
Critical_IP_Detector_Accuracy_90: 0.538462
Critical_IP_Detector_Coverage_70: 0.00777202
Critical_IP_Detector_Coverage_80: 0.00607287
Critical_IP_Detector_Coverage_90: 0.00557325
stat_90_percent_critical_ip_stalls_freq: 2560603
stat_90_percent_non_critical_ip_stalls_freq: 283835
AVERAGE_ROB_Occupancy_90_Percent_Critical_IP_Stalls: 55.3819
AVERAGE_ROB_Occupancy_90_Percent_Non_Critical_IP_Stalls: 54.2634
Critical_IP_ROB_Stalls_Bucket_0: 2279
Non-critical_IP_ROB_Stalls_Bucket_0: 1611637
Critical_IP_ROB_Stalls_Bucket_1: 2702
Non-critical_IP_ROB_Stalls_Bucket_1: 863240
Critical_IP_ROB_Stalls_Bucket_2: 357
Non-critical_IP_ROB_Stalls_Bucket_2: 270182
Critical_IP_ROB_Stalls_Bucket_3: 361
Non-critical_IP_ROB_Stalls_Bucket_3: 61836
Critical_IP_ROB_Stalls_Bucket_4: 607
Non-critical_IP_ROB_Stalls_Bucket_4: 9094
Critical_IP_ROB_Stalls_Bucket_5: 577
Non-critical_IP_ROB_Stalls_Bucket_5: 3096
Critical_IP_ROB_Stalls_Bucket_6: 11140
Non-critical_IP_ROB_Stalls_Bucket_6: 7330
0 => IPs accounting for >50 percent of stalls, 1 => 55, 2 => 60, 3 => 65 and so on till 90.
percent50: 50.0406 num IPs:  362
percent55: 55.0324 num IPs: 464
percent60: 60.0147 num IPs: 566
percent65: 65.0397 num IPs: 669
percent70: 70.0267 num IPs: 772
percent75: 75.0026 num IPs: 877
percent80: 80.0413 num IPs: 988
percent85: 85.0328 num IPs: 1108
percent90: 90.0212 num IPs: 1256
Critical_ROB_Stalls_Percent_0_Bucket_0: 834553
Non-critical_ROB_Stalls_Percent_0_Bucket_0: 779363
Critical_ROB_Stalls_Percent_0_Bucket_1: 421387
Non-critical_ROB_Stalls_Percent_0_Bucket_1: 444555
Critical_ROB_Stalls_Percent_0_Bucket_2: 130872
Non-critical_ROB_Stalls_Percent_0_Bucket_2: 139667
Critical_ROB_Stalls_Percent_0_Bucket_3: 20755
Non-critical_ROB_Stalls_Percent_0_Bucket_3: 41442
Critical_ROB_Stalls_Percent_0_Bucket_4: 4386
Non-critical_ROB_Stalls_Percent_0_Bucket_4: 5315
Critical_ROB_Stalls_Percent_0_Bucket_5: 908
Non-critical_ROB_Stalls_Percent_0_Bucket_5: 2765
Critical_ROB_Stalls_Percent_0_Bucket_6: 10514
Non-critical_ROB_Stalls_Percent_0_Bucket_6: 7956
Critical_ROB_Stalls_Percent_1_Bucket_0: 885993
Non-critical_ROB_Stalls_Percent_1_Bucket_0: 727923
Critical_ROB_Stalls_Percent_1_Bucket_1: 486643
Non-critical_ROB_Stalls_Percent_1_Bucket_1: 379299
Critical_ROB_Stalls_Percent_1_Bucket_2: 150266
Non-critical_ROB_Stalls_Percent_1_Bucket_2: 120273
Critical_ROB_Stalls_Percent_1_Bucket_3: 25048
Non-critical_ROB_Stalls_Percent_1_Bucket_3: 37149
Critical_ROB_Stalls_Percent_1_Bucket_4: 5661
Non-critical_ROB_Stalls_Percent_1_Bucket_4: 4040
Critical_ROB_Stalls_Percent_1_Bucket_5: 1225
Non-critical_ROB_Stalls_Percent_1_Bucket_5: 2448
Critical_ROB_Stalls_Percent_1_Bucket_6: 10530
Non-critical_ROB_Stalls_Percent_1_Bucket_6: 7940
Critical_ROB_Stalls_Percent_2_Bucket_0: 958330
Non-critical_ROB_Stalls_Percent_2_Bucket_0: 655586
Critical_ROB_Stalls_Percent_2_Bucket_1: 533708
Non-critical_ROB_Stalls_Percent_2_Bucket_1: 332234
Critical_ROB_Stalls_Percent_2_Bucket_2: 167389
Non-critical_ROB_Stalls_Percent_2_Bucket_2: 103150
Critical_ROB_Stalls_Percent_2_Bucket_3: 28848
Non-critical_ROB_Stalls_Percent_2_Bucket_3: 33349
Critical_ROB_Stalls_Percent_2_Bucket_4: 5907
Non-critical_ROB_Stalls_Percent_2_Bucket_4: 3794
Critical_ROB_Stalls_Percent_2_Bucket_5: 1434
Non-critical_ROB_Stalls_Percent_2_Bucket_5: 2239
Critical_ROB_Stalls_Percent_2_Bucket_6: 11471
Non-critical_ROB_Stalls_Percent_2_Bucket_6: 6999
Critical_ROB_Stalls_Percent_3_Bucket_0: 1002230
Non-critical_ROB_Stalls_Percent_3_Bucket_0: 611686
Critical_ROB_Stalls_Percent_3_Bucket_1: 588480
Non-critical_ROB_Stalls_Percent_3_Bucket_1: 277462
Critical_ROB_Stalls_Percent_3_Bucket_2: 198283
Non-critical_ROB_Stalls_Percent_3_Bucket_2: 72256
Critical_ROB_Stalls_Percent_3_Bucket_3: 41379
Non-critical_ROB_Stalls_Percent_3_Bucket_3: 20818
Critical_ROB_Stalls_Percent_3_Bucket_4: 6735
Non-critical_ROB_Stalls_Percent_3_Bucket_4: 2966
Critical_ROB_Stalls_Percent_3_Bucket_5: 1437
Non-critical_ROB_Stalls_Percent_3_Bucket_5: 2236
Critical_ROB_Stalls_Percent_3_Bucket_6: 11474
Non-critical_ROB_Stalls_Percent_3_Bucket_6: 6996
Critical_ROB_Stalls_Percent_4_Bucket_0: 1072822
Non-critical_ROB_Stalls_Percent_4_Bucket_0: 541094
Critical_ROB_Stalls_Percent_4_Bucket_1: 635600
Non-critical_ROB_Stalls_Percent_4_Bucket_1: 230342
Critical_ROB_Stalls_Percent_4_Bucket_2: 213925
Non-critical_ROB_Stalls_Percent_4_Bucket_2: 56614
Critical_ROB_Stalls_Percent_4_Bucket_3: 48835
Non-critical_ROB_Stalls_Percent_4_Bucket_3: 13362
Critical_ROB_Stalls_Percent_4_Bucket_4: 6801
Non-critical_ROB_Stalls_Percent_4_Bucket_4: 2900
Critical_ROB_Stalls_Percent_4_Bucket_5: 1535
Non-critical_ROB_Stalls_Percent_4_Bucket_5: 2138
Critical_ROB_Stalls_Percent_4_Bucket_6: 12353
Non-critical_ROB_Stalls_Percent_4_Bucket_6: 6117
Critical_ROB_Stalls_Percent_5_Bucket_0: 1159028
Non-critical_ROB_Stalls_Percent_5_Bucket_0: 454888
Critical_ROB_Stalls_Percent_5_Bucket_1: 678325
Non-critical_ROB_Stalls_Percent_5_Bucket_1: 187617
Critical_ROB_Stalls_Percent_5_Bucket_2: 223997
Non-critical_ROB_Stalls_Percent_5_Bucket_2: 46542
Critical_ROB_Stalls_Percent_5_Bucket_3: 51080
Non-critical_ROB_Stalls_Percent_5_Bucket_3: 11117
Critical_ROB_Stalls_Percent_5_Bucket_4: 7068
Non-critical_ROB_Stalls_Percent_5_Bucket_4: 2633
Critical_ROB_Stalls_Percent_5_Bucket_5: 1552
Non-critical_ROB_Stalls_Percent_5_Bucket_5: 2121
Critical_ROB_Stalls_Percent_5_Bucket_6: 12357
Non-critical_ROB_Stalls_Percent_5_Bucket_6: 6113
Critical_ROB_Stalls_Percent_6_Bucket_0: 1262823
Non-critical_ROB_Stalls_Percent_6_Bucket_0: 351093
Critical_ROB_Stalls_Percent_6_Bucket_1: 708734
Non-critical_ROB_Stalls_Percent_6_Bucket_1: 157208
Critical_ROB_Stalls_Percent_6_Bucket_2: 230372
Non-critical_ROB_Stalls_Percent_6_Bucket_2: 40167
Critical_ROB_Stalls_Percent_6_Bucket_3: 53462
Non-critical_ROB_Stalls_Percent_6_Bucket_3: 8735
Critical_ROB_Stalls_Percent_6_Bucket_4: 7361
Non-critical_ROB_Stalls_Percent_6_Bucket_4: 2340
Critical_ROB_Stalls_Percent_6_Bucket_5: 1616
Non-critical_ROB_Stalls_Percent_6_Bucket_5: 2057
Critical_ROB_Stalls_Percent_6_Bucket_6: 12362
Non-critical_ROB_Stalls_Percent_6_Bucket_6: 6108
Critical_ROB_Stalls_Percent_7_Bucket_0: 1356227
Non-critical_ROB_Stalls_Percent_7_Bucket_0: 257689
Critical_ROB_Stalls_Percent_7_Bucket_1: 746271
Non-critical_ROB_Stalls_Percent_7_Bucket_1: 119671
Critical_ROB_Stalls_Percent_7_Bucket_2: 238597
Non-critical_ROB_Stalls_Percent_7_Bucket_2: 31942
Critical_ROB_Stalls_Percent_7_Bucket_3: 54610
Non-critical_ROB_Stalls_Percent_7_Bucket_3: 7587
Critical_ROB_Stalls_Percent_7_Bucket_4: 7463
Non-critical_ROB_Stalls_Percent_7_Bucket_4: 2238
Critical_ROB_Stalls_Percent_7_Bucket_5: 1964
Non-critical_ROB_Stalls_Percent_7_Bucket_5: 1709
Critical_ROB_Stalls_Percent_7_Bucket_6: 13577
Non-critical_ROB_Stalls_Percent_7_Bucket_6: 4893
Critical_ROB_Stalls_Percent_8_Bucket_0: 1446890
Non-critical_ROB_Stalls_Percent_8_Bucket_0: 167026
Critical_ROB_Stalls_Percent_8_Bucket_1: 780588
Non-critical_ROB_Stalls_Percent_8_Bucket_1: 85354
Critical_ROB_Stalls_Percent_8_Bucket_2: 249983
Non-critical_ROB_Stalls_Percent_8_Bucket_2: 20556
Critical_ROB_Stalls_Percent_8_Bucket_3: 57114
Non-critical_ROB_Stalls_Percent_8_Bucket_3: 5083
Critical_ROB_Stalls_Percent_8_Bucket_4: 8120
Non-critical_ROB_Stalls_Percent_8_Bucket_4: 1581
Critical_ROB_Stalls_Percent_8_Bucket_5: 2299
Non-critical_ROB_Stalls_Percent_8_Bucket_5: 1374
Critical_ROB_Stalls_Percent_8_Bucket_6: 15609
Non-critical_ROB_Stalls_Percent_8_Bucket_6: 2861
Average ROB occupancy Load Stall Begin: 45.4106
Average ROB occupancy Load Stall End: 55.2703
Min ROB occupancy Load Stall Begin: 1
Max ROB occupancy Load Stall Begin: 352
Min ROB occupancy Load Stall End: 1
Max ROB occupancy Load Stall End: 352
Average ROB occupancy Critical Load Stall Begin: 259.941
Average ROB occupancy Critical Load Stall End: 269.91
Min ROB occupancy Critical Load Stall Begin: 2
Max ROB occupancy Critical Load Stall Begin: 352
Min ROB occupancy Critical Load Stall End: 2
Max ROB occupancy Critical Load Stall End: 352
 ROB Load Stall Begin Bucket Count 0: 1940640
 ROB Load Stall End Bucket Count 0: 1613916
 ROB Critical Load Stall Begin Bucket Count 0: 2360
 ROB Critical Load Stall End Bucket Count 0: 1408
 ROB Load Stall Begin Bucket Count 1: 649879
 ROB Load Stall End Bucket Count 1: 865942
 ROB Critical Load Stall Begin Bucket Count 1: 1108
 ROB Critical Load Stall End Bucket Count 1: 1991
 ROB Load Stall Begin Bucket Count 2: 183944
 ROB Load Stall End Bucket Count 2: 270539
 ROB Critical Load Stall Begin Bucket Count 2: 386
 ROB Critical Load Stall End Bucket Count 2: 313
 ROB Load Stall Begin Bucket Count 3: 42103
 ROB Load Stall End Bucket Count 3: 62197
 ROB Critical Load Stall Begin Bucket Count 3: 266
 ROB Critical Load Stall End Bucket Count 3: 252
 ROB Load Stall Begin Bucket Count 4: 6988
 ROB Load Stall End Bucket Count 4: 9701
 ROB Critical Load Stall Begin Bucket Count 4: 465
 ROB Critical Load Stall End Bucket Count 4: 443
 ROB Load Stall Begin Bucket Count 5: 4428
 ROB Load Stall End Bucket Count 5: 3673
 ROB Critical Load Stall Begin Bucket Count 5: 1244
 ROB Critical Load Stall End Bucket Count 5: 448
 ROB Load Stall Begin Bucket Count 6: 16456
 ROB Load Stall End Bucket Count 6: 18470
 ROB Critical Load Stall Begin Bucket Count 6: 9668
 ROB Critical Load Stall End Bucket Count 6: 10642
PIST Tag Read Accesses: 3021390
PIST Read Accesses: 1510695
PIST Tag Write Accesses: 3021390
PIST Write Accesses: 1510695
Criticality detector called times: 2828941
Max global_stall_cycles_count: 2631745
Threshold Modified: 1 times, factor: -1
Sturdy critical IP cache stats: 
 Unused entries: 0
CIC Tag Read Accesses: 0
CIC Read Accesses: 0
CIC Tag Write Accesses: 0
CIC Write Accesses: 0
Wobbly critical IP cache stats: 
 Unused entries: 115
CIC Tag Read Accesses: 76848467
CIC Read Accesses: 0
CIC Tag Write Accesses: 4983
CIC Write Accesses: 0
ITLB TOTAL     ACCESS:   10550209  HIT:    9888922  MISS:     661287  HIT %:     93.732  MISS %:      6.268   MPKI: 13.2257
ITLB LOAD TRANSLATION ACCESS:    8291070  HIT:    8271007  MISS:      20063  HIT %:     99.758  MISS %:   0.241983   MPKI: 0.40126
ITLB TRANSLATION FROM L1D PREFETCHER ACCESS:    2259139  HIT:    1617915  MISS:     641224  HIT %:    71.6164  MISS %:    28.3836   MPKI: 12.8245
ITLBprefetch_cycle_count: 0 prefetches_per_prefetch_cycle: -nan
ITLB PREFETCH  REQUESTED:          0  ISSUED:          0  USEFUL:     543174  USELESS:      98048
ITLB USEFUL LOAD PREFETCHES:     543174 PREFETCH ISSUED TO LOWER LEVEL:          0  ACCURACY: inf
ITLB TIMELY PREFETCHES:     543174 LATE PREFETCHES: 61 DROPPED PREFETCHES: 0
ITLB PREFETCHES SAME FILL-ORIGIN LEVEL: 0 DIFFERENT FILL-ORIGIN LEVEL: 0
ITLB AVERAGE MISS LATENCY: 4350.79 cycles
ITLB RQ	ACCESS:   16044308	FORWARD:          0	MERGED:    5454211	TO_CACHE:   10590097

DTLB TOTAL     ACCESS:    9482413  HIT:    9068791  MISS:     413622  HIT %:     95.638  MISS %:    4.36199   MPKI: 8.27244
DTLB LOAD TRANSLATION ACCESS:    9482413  HIT:    9068791  MISS:     413622  HIT %:     95.638  MISS %:    4.36199   MPKI: 8.27244
DTLBprefetch_cycle_count: 0 prefetches_per_prefetch_cycle: -nan
DTLB PREFETCH  REQUESTED:          0  ISSUED:          0  USEFUL:          0  USELESS:          0
DTLB USEFUL LOAD PREFETCHES:          0 PREFETCH ISSUED TO LOWER LEVEL:          0  ACCURACY: -nan
DTLB TIMELY PREFETCHES:          0 LATE PREFETCHES: 0 DROPPED PREFETCHES: 0
DTLB PREFETCHES SAME FILL-ORIGIN LEVEL: 0 DIFFERENT FILL-ORIGIN LEVEL: 0
DTLB AVERAGE MISS LATENCY: 9.08459 cycles
DTLB RQ	ACCESS:   13398011	FORWARD:          0	MERGED:    3899174	TO_CACHE:    9498837

STLB TOTAL     ACCESS:    1074909  HIT:    1074100  MISS:        809  HIT %:    99.9247  MISS %:  0.0752622   MPKI: 0.01618
STLB LOAD TRANSLATION ACCESS:     433624  HIT:     433081  MISS:        543  HIT %:    99.8748  MISS %:   0.125224   MPKI: 0.01086
STLB TRANSLATION FROM L1D PREFETCHER ACCESS:     641285  HIT:     641019  MISS:        266  HIT %:    99.9585  MISS %:  0.0414792   MPKI: 0.00532
STLBprefetch_cycle_count: 0 prefetches_per_prefetch_cycle: -nan
STLB PREFETCH  REQUESTED:          0  ISSUED:          0  USEFUL:        153  USELESS:        113
STLB USEFUL LOAD PREFETCHES:        153 PREFETCH ISSUED TO LOWER LEVEL:          0  ACCURACY: inf
STLB TIMELY PREFETCHES:        153 LATE PREFETCHES: 0 DROPPED PREFETCHES: 0
STLB PREFETCHES SAME FILL-ORIGIN LEVEL: 0 DIFFERENT FILL-ORIGIN LEVEL: 0
STLB AVERAGE MISS LATENCY: 43.4524 cycles
STLB RQ	ACCESS:    1074909	FORWARD:          0	MERGED:          0	TO_CACHE:    1074909

STLB Hit, L1D data hit: 0
STLB Hit, L2C data hit: 0
STLB Hit, LLC data hit: 0
STLB Hit, LLC data miss: 0
STLB STLB hints to L2: 0
L1D TOTAL     ACCESS:   13278992  HIT:   12673835  MISS:     605157  HIT %:    95.4427  MISS %:    4.55725   MPKI: 12.1031
L1D LOAD      ACCESS:    7006969  HIT:    6488284  MISS:     518685  HIT %:    92.5976  MISS %:    7.40242   MPKI: 10.3737
L1D RFO       ACCESS:    6272023  HIT:    6185551  MISS:      86472  HIT %:    98.6213  MISS %:    1.37869   MPKI: 1.72944
L1Dprefetch_cycle_count: 0 prefetches_per_prefetch_cycle: -nan
L1D PREFETCH  REQUESTED:          0  ISSUED:          0  USEFUL:          0  USELESS:          0
L1D USEFUL LOAD PREFETCHES:          0 PREFETCH ISSUED TO LOWER LEVEL:          0  ACCURACY: -nan
L1D TIMELY PREFETCHES:          0 LATE PREFETCHES: 0 DROPPED PREFETCHES: 0
L1D PREFETCHES SAME FILL-ORIGIN LEVEL: 0 DIFFERENT FILL-ORIGIN LEVEL: 0
L1D AVERAGE MISS LATENCY: 19.198 cycles
L1D RQ	ACCESS:   10533296	FORWARD:          0	MERGED:    3349968	TO_CACHE:    7024200
L1D WQ	ACCESS:    6506011	FORWARD:     159128	MERGED:     132200	TO_CACHE:    6373811

L1D UNIQUE REGIONS ACCESSED: 0
L1D REGIONS CONFLICTS: 0
L1D Cross Page Prefetch Requests: 0
L1D Same Page Prefetch Requests: 0
L1D ROI Sum of L1D PQ occupancy: 0
L1D PREFETCHES PUSHED FROM L2C: 0
L1I TOTAL     ACCESS:   15976234  HIT:   11509998  MISS:    4466236  HIT %:    72.0445  MISS %:    27.9555   MPKI: 89.3247
L1I LOAD      ACCESS:    9788470  HIT:    9755416  MISS:      33054  HIT %:    99.6623  MISS %:   0.337683   MPKI: 0.66108
L1I PREFETCH  ACCESS:    6187764  HIT:    1754582  MISS:    4433182  HIT %:    28.3557  MISS %:    71.6443   MPKI: 88.6636
L1Iprefetch_cycle_count: 0 prefetches_per_prefetch_cycle: inf
L1I PREFETCH  REQUESTED:    6426629  ISSUED:    6403367  USEFUL:    3389635  USELESS:    1043519
L1I USEFUL LOAD PREFETCHES:    3389635 PREFETCH ISSUED TO LOWER LEVEL:    4458729  ACCURACY: 76.0224
L1I TIMELY PREFETCHES:    3389635 LATE PREFETCHES: 13801 DROPPED PREFETCHES: 0
L1I PREFETCHES SAME FILL-ORIGIN LEVEL: 4458729 DIFFERENT FILL-ORIGIN LEVEL: 0
L1I AVERAGE MISS LATENCY: 141439 cycles
L1I RQ	ACCESS:   14223905	FORWARD:          0	MERGED:    4432279	TO_CACHE:    9791626
L1I PQ	ACCESS:    6403367	FORWARD:          0	MERGED:     150685	TO_CACHE:    6252682

BTB TOTAL     ACCESS:    6346793  HIT:    5354841  MISS:     991952  HIT %:    84.3708  MISS %:    15.6292   MPKI: 19.839
BTB BRANCH_DIRECT_JUMP	ACCESS:     771318  HIT:     694201  MISS:      77117
BTB BRANCH_INDIRECT	ACCESS:     108662  HIT:      73806  MISS:      34856
BTB BRANCH_CONDITIONAL	ACCESS:    2942980  HIT:    2730770  MISS:     212210
BTB BRANCH_DIRECT_CALL	ACCESS:    1049632  HIT:     929791  MISS:     119841
BTB BRANCH_INDIRECT_CALL	ACCESS:     212280  HIT:     143929  MISS:      68351
BTB BRANCH_RETURN	ACCESS:    1261921  HIT:     782344  MISS:     479577
BTB BRANCH_OTHER ACCESS:          0  HIT:          0  MISS:          0

L2C TOTAL     ACCESS:    7921045  HIT:    7754873  MISS:     166172  HIT %:    97.9021  MISS %:    2.09785   MPKI: 3.32344
L2C LOAD      ACCESS:     537885  HIT:     482335  MISS:      55550  HIT %:    89.6725  MISS %:    10.3275   MPKI: 1.111
L2C DATA LOAD MPKI: 1.09392
L2C INSTRUCTION LOAD MPKI: 0.01708
L2C RFO       ACCESS:      86472  HIT:      74866  MISS:      11606  HIT %:    86.5783  MISS %:    13.4217   MPKI: 0.23212
L2C PREFETCH  ACCESS:    7066667  HIT:    6975898  MISS:      90769  HIT %:    98.7155  MISS %:    1.28447   MPKI: 1.81538
L2C DATA PREFETCH MPKI: 0.9516
L2C INSTRUCTION PREFETCH MPKI: 0.86378
L2C WRITEBACK ACCESS:     229203  HIT:     221241  MISS:       7962  HIT %:    96.5262  MISS %:    3.47378   MPKI: 0.15924
L2C LOAD TRANSLATION ACCESS:        551  HIT:        401  MISS:        150  HIT %:    72.7768  MISS %:    27.2232   MPKI: 0.003
L2C TRANSLATION FROM L1D PREFETCHER ACCESS:        267  HIT:        132  MISS:        135  HIT %:    49.4382  MISS %:    50.5618   MPKI: 0.0027
L2Cprefetch_cycle_count: 4552905 prefetches_per_prefetch_cycle: 1.90154
L2C PREFETCH  REQUESTED:    8672678  ISSUED:    8657548  USEFUL:      12335  USELESS:      76708
L2C USEFUL LOAD PREFETCHES:      12335 PREFETCH ISSUED TO LOWER LEVEL:    1696836  ACCURACY: 0.726941
L2C TIMELY PREFETCHES:      12335 LATE PREFETCHES: 1910 DROPPED PREFETCHES: 0
L2C PREFETCHES SAME FILL-ORIGIN LEVEL: 49662 DIFFERENT FILL-ORIGIN LEVEL: 1604157
L2C AVERAGE MISS LATENCY: 33.9258 cycles
L2C RQ	ACCESS:     625228	FORWARD:          0	MERGED:          0	TO_CACHE:     625175
L2C WQ	ACCESS:     229203	FORWARD:         55	MERGED:          0	TO_CACHE:     229203
L2C PQ	ACCESS:   13104529	FORWARD:          0	MERGED:    4424421	TO_CACHE:    8680106

L2C Instructions Evicting Data 22320
L2C Translations Evicting Data 260
L2C Data Evicting Data 93306
L2C Instructions Evicting Instructions 21714
L2C Translations Evicting Instructions 25
L2C Data Evicting Instructions 20289
L2C Instructions Evicting Translations 9
L2C Translations Evicting Translations 0
L2C Data Evicting Translations 287
L2C Dense regions hint from L2: 0
PSCL5 TOTAL     ACCESS:        809  HIT:        809  MISS:          0  HIT %:        100  MISS %:          0   MPKI: 0
PSCL5 LOAD TRANSLATION ACCESS:        543  HIT:        543  MISS:          0  HIT %:        100  MISS %:          0   MPKI: 0
PSCL5 TRANSLATION FROM L1D PREFETCHER ACCESS:        266  HIT:        266  MISS:          0  HIT %:        100  MISS %:          0   MPKI: 0
PSCL5prefetch_cycle_count: 0 prefetches_per_prefetch_cycle: -nan
PSCL5 PREFETCH  REQUESTED:          0  ISSUED:          0  USEFUL:          0  USELESS:          0
PSCL5 USEFUL LOAD PREFETCHES:          0 PREFETCH ISSUED TO LOWER LEVEL:          0  ACCURACY: -nan
PSCL5 TIMELY PREFETCHES:          0 LATE PREFETCHES: 0 DROPPED PREFETCHES: 0
PSCL5 PREFETCHES SAME FILL-ORIGIN LEVEL: 0 DIFFERENT FILL-ORIGIN LEVEL: 0

PSCL4 TOTAL     ACCESS:        535  HIT:        534  MISS:          1  HIT %:    99.8131  MISS %:   0.186916   MPKI: 2e-05
PSCL4 LOAD TRANSLATION ACCESS:        357  HIT:        356  MISS:          1  HIT %:    99.7199  MISS %:   0.280112   MPKI: 2e-05
PSCL4 TRANSLATION FROM L1D PREFETCHER ACCESS:        178  HIT:        178  MISS:          0  HIT %:        100  MISS %:          0   MPKI: 0
PSCL4prefetch_cycle_count: 0 prefetches_per_prefetch_cycle: -nan
PSCL4 PREFETCH  REQUESTED:          0  ISSUED:          0  USEFUL:          0  USELESS:          0
PSCL4 USEFUL LOAD PREFETCHES:          0 PREFETCH ISSUED TO LOWER LEVEL:          0  ACCURACY: -nan
PSCL4 TIMELY PREFETCHES:          0 LATE PREFETCHES: 0 DROPPED PREFETCHES: 0
PSCL4 PREFETCHES SAME FILL-ORIGIN LEVEL: 0 DIFFERENT FILL-ORIGIN LEVEL: 0

PSCL3 TOTAL     ACCESS:        619  HIT:        618  MISS:          1  HIT %:    99.8384  MISS %:   0.161551   MPKI: 2e-05
PSCL3 LOAD TRANSLATION ACCESS:        441  HIT:        440  MISS:          1  HIT %:    99.7732  MISS %:   0.226757   MPKI: 2e-05
PSCL3 TRANSLATION FROM L1D PREFETCHER ACCESS:        178  HIT:        178  MISS:          0  HIT %:        100  MISS %:          0   MPKI: 0
PSCL3prefetch_cycle_count: 0 prefetches_per_prefetch_cycle: -nan
PSCL3 PREFETCH  REQUESTED:          0  ISSUED:          0  USEFUL:          0  USELESS:          0
PSCL3 USEFUL LOAD PREFETCHES:          0 PREFETCH ISSUED TO LOWER LEVEL:          0  ACCURACY: -nan
PSCL3 TIMELY PREFETCHES:          0 LATE PREFETCHES: 0 DROPPED PREFETCHES: 0
PSCL3 PREFETCHES SAME FILL-ORIGIN LEVEL: 0 DIFFERENT FILL-ORIGIN LEVEL: 0

PSCL2 TOTAL     ACCESS:        809  HIT:        802  MISS:          7  HIT %:    99.1347  MISS %:   0.865266   MPKI: 0.00014
PSCL2 LOAD TRANSLATION ACCESS:        544  HIT:        537  MISS:          7  HIT %:    98.7132  MISS %:    1.28676   MPKI: 0.00014
PSCL2 TRANSLATION FROM L1D PREFETCHER ACCESS:        265  HIT:        265  MISS:          0  HIT %:        100  MISS %:          0   MPKI: 0
PSCL2prefetch_cycle_count: 0 prefetches_per_prefetch_cycle: -nan
PSCL2 PREFETCH  REQUESTED:          0  ISSUED:          0  USEFUL:          0  USELESS:          0
PSCL2 USEFUL LOAD PREFETCHES:          0 PREFETCH ISSUED TO LOWER LEVEL:          0  ACCURACY: -nan
PSCL2 TIMELY PREFETCHES:          0 LATE PREFETCHES: 0 DROPPED PREFETCHES: 0
PSCL2 PREFETCHES SAME FILL-ORIGIN LEVEL: 0 DIFFERENT FILL-ORIGIN LEVEL: 0

LLC TOTAL     ACCESS:    1803446  HIT:    1786442  MISS:      17004  HIT %:    99.0571  MISS %:   0.942862   MPKI: 0.34008
LLC LOAD      ACCESS:      53654  HIT:      51371  MISS:       2283  HIT %:     95.745  MISS %:    4.25504   MPKI: 0.04566
LLC RFO       ACCESS:      11592  HIT:      10508  MISS:       1084  HIT %:    90.6487  MISS %:    9.35128   MPKI: 0.02168
LLC PREFETCH  ACCESS:    1691933  HIT:    1678762  MISS:      13171  HIT %:    99.2215  MISS %:   0.778459   MPKI: 0.26342
LLC WRITEBACK ACCESS:      45982  HIT:      45545  MISS:        437  HIT %:    99.0496  MISS %:   0.950372   MPKI: 0.00874
LLC LOAD TRANSLATION ACCESS:        150  HIT:        123  MISS:         27  HIT %:         82  MISS %:         18   MPKI: 0.00054
LLC TRANSLATION FROM L1D PREFETCHER ACCESS:        135  HIT:        133  MISS:          2  HIT %:    98.5185  MISS %:    1.48148   MPKI: 4e-05
LLCprefetch_cycle_count: 0 prefetches_per_prefetch_cycle: -nan
LLC PREFETCH  REQUESTED:          0  ISSUED:          0  USEFUL:       2947  USELESS:       4864
LLC USEFUL LOAD PREFETCHES:       2947 PREFETCH ISSUED TO LOWER LEVEL:      13419  ACCURACY: 21.9614
LLC TIMELY PREFETCHES:       2947 LATE PREFETCHES: 248 DROPPED PREFETCHES: 0
LLC PREFETCHES SAME FILL-ORIGIN LEVEL: 10870 DIFFERENT FILL-ORIGIN LEVEL: 0
LLC AVERAGE MISS LATENCY: 154.881 cycles
LLC RQ	ACCESS:      65531	FORWARD:          0	MERGED:          0	TO_CACHE:      65531
LLC WQ	ACCESS:      45982	FORWARD:          2	MERGED:          0	TO_CACHE:      45982
LLC PQ	ACCESS:    1696836	FORWARD:          0	MERGED:       3886	TO_CACHE:    1692948

LLC Dense regions hint to LLC: 0

RAW hits: 1505977
Loads Generated: 12039274
Loads sent to L1D: 10533296
Stores Generated: 6506011
Stores sent to L1D: 6506011
Major fault: 0 Minor fault: 1244
Allocated PAGES: 1244
I-Shadow cache 408 bytes
Touched + WorthPF tables 6144 bytes 
MMA filter 174 bytes 
FNL filter 272 bytes 
TOTAL PREFETCHER STORAGE SIZE: 25174 bytes
CPU 0 L1I next line prefetcher final stats
total_pref_operate_instances_l2: 4905624
dynamic_config_counter_instances_l2_1: 4250546
dynamic_config_counter_instances_l2_2: 140147
dynamic_config_counter_instances_l2_3: 514931
dynamic_config_counter_instances_l2_4: 0
dynamic_config_counter_instances_l2_5: 0
regions_captured: 1059
 All Calls: 9751560
 Critical Calls: 9751560
------------------
Depth Distribution
------------------
depth 0: 0
depth 1: 9176237
depth 2: 5045406
depth 3: 564207
depth 4: 1897
depth 5: 29
depth 6: 0
depth 7: 0
depth 8: 0
depth 9: 0
depth 10: 0
depth 11: 0
depth 12: 0
depth 13: 0
depth 14: 0
depth 15: 0
depth 16: 0
depth 17: 0
depth 18: 0
depth 19: 0
depth 20: 0
depth 21: 0
depth 22: 0
depth 23: 0
depth 24: 0
depth 25: 0
depth 26: 0
depth 27: 0
depth 28: 0
depth 29: 0
Total: 14787776
-----------------------------
-----------------------------
	Captured at Filter
-----------------------------
depth 0: 0
depth 1: 1754003
depth 2: 917241
depth 3: 122285
depth 4: 211
depth 5: 0
depth 6: 0
depth 7: 0
depth 8: 0
depth 9: 0
depth 10: 0
depth 11: 0
depth 12: 0
depth 13: 0
depth 14: 0
depth 15: 0
depth 16: 0
depth 17: 0
depth 18: 0
depth 19: 0
depth 20: 0
depth 21: 0
depth 22: 0
depth 23: 0
depth 24: 0
depth 25: 0
depth 26: 0
depth 27: 0
depth 28: 0
depth 29: 0
-----------------------------
-----------------------------
		Lost at Page
-----------------------------
depth 0: 0
depth 1: 807872
depth 2: 212153
depth 3: 27577
depth 4: 146
depth 5: 12
depth 6: 0
depth 7: 0
depth 8: 0
depth 9: 0
depth 10: 0
depth 11: 0
depth 12: 0
depth 13: 0
depth 14: 0
depth 15: 0
depth 16: 0
depth 17: 0
depth 18: 0
depth 19: 0
depth 20: 0
depth 21: 0
depth 22: 0
depth 23: 0
depth 24: 0
depth 25: 0
depth 26: 0
depth 27: 0
depth 28: 0
depth 29: 0
-----------------------------
-----------------------------
	Lost due to PQ Size
-----------------------------
115688
-----------------------------
ST read accesses: 4392818
ST write accesses: 512806
PT read accesses: 78521047
PT write accesses: 6030892
FILTER read accesses: 15641122
FILTER write accesses: 4613437
GHR read accesses: 9177350
GHR write accesses: 729889
GHR counter read accesses: 67351592
GHR counter write accesses: 9414979
ST tag read accesses: 2155547600
ST tag write accesses: 202679007

DRAM Statistics
 CHANNEL 0
 RQ ROW_BUFFER_HIT:       2553  ROW_BUFFER_MISS:      14014
 DBUS_CONGESTED:         37
 WQ ROW_BUFFER_HIT:        882  ROW_BUFFER_MISS:       6356  FULL:          0

 AVG_CONGESTED_CYCLE: 5
 All warmup complete: 2
Channel 0 Bank busy for read cycles: 0
Channel 0 Bank busy for write cycles: 0
Channel 0
Rank 0
0banks busy for read cycles: 60662214
0banks busy for write cycles: 3650
1banks busy for read cycles: 1120399
1banks busy for write cycles: 489095
2banks busy for read cycles: 299642
2banks busy for write cycles: 133130
3banks busy for read cycles: 101680
3banks busy for write cycles: 64673
4banks busy for read cycles: 32030
4banks busy for write cycles: 43720
5banks busy for read cycles: 11121
5banks busy for write cycles: 16786
6banks busy for read cycles: 2825
6banks busy for write cycles: 7952
7banks busy for read cycles: 652
7banks busy for write cycles: 4821
8banks busy for read cycles: 0
8banks busy for write cycles: 2118

CPU 0 Branch Prediction Accuracy: 99.926% MPKI: 0.14472 Average ROB Occupancy at Mispredict: 60.709
Branch types
NOT_BRANCH: 40220870 80.4417%
BRANCH_DIRECT_JUMP: 771318 1.54264%
BRANCH_INDIRECT: 108662 0.217324%
BRANCH_CONDITIONAL: 6375021 12.75%
BRANCH_DIRECT_CALL: 1049632 2.09926%
BRANCH_INDIRECT_CALL: 212280 0.42456%
BRANCH_RETURN: 1261921 2.52384%
BRANCH_OTHER: 0 0%

DRAM PAGES: 1048576
Allocated PAGES: 1244
