
*** ChampSim Multicore Out-of-Order Simulator ***

Warmup Instructions: 50000000
Simulation Instructions: 50000000
Number of CPUs: 1
LLC sets: 2048
LLC ways: 16
Off-chip DRAM Size: 4096 MB Channels: 1 Width: 64-bit Data Rate: 6400 MT/s
CPU 0 runs ../IPC-traces//server_031.champsimtrace.xz
.xz
NUM_OF_IPS_IN_CRITICAL_IP_TRAINING: 64
NUM_OF_CRITICAL_IP_TRAINING_TABLE_WAYS: 2
NUM_OF_CRITICAL_IP_TRAINING_TABLE_SETS: 32
WOBBLY_CRITICAL_IP_CACHE_SETS: 32
WOBBLY_CRITICAL_IP_CACHE_WAYS: 4
BTB has LRU replacement policy
ITLB has LRU replacement policy
DTLB has LRU replacement policy
STLB has LRU replacement policy
CPU 0 L1I next line prefetcher
L1I has LRU replacement policy
IP Table Entries: 64
L1D has LRU replacement policy
Initialize SRRIP state for L2C
Initialize DRRIP state for LLC
Heartbeat CPU 0 instructions: 10000000 cycles: 2883383 heartbeat IPC: 3.46815 cumulative IPC: 3.46815 (Simulation time: 0 hr 5 min 29 sec) 
Heartbeat CPU 0 instructions: 20000000 cycles: 5763240 heartbeat IPC: 3.47239 cumulative IPC: 3.47027 (Simulation time: 0 hr 10 min 9 sec) 
Heartbeat CPU 0 instructions: 30000002 cycles: 8640886 heartbeat IPC: 3.47506 cumulative IPC: 3.47187 (Simulation time: 0 hr 14 min 21 sec) 
Heartbeat CPU 0 instructions: 40000003 cycles: 11518738 heartbeat IPC: 3.47481 cumulative IPC: 3.4726 (Simulation time: 0 hr 17 min 41 sec) 
Heartbeat CPU 0 instructions: 50000001 cycles: 14399040 heartbeat IPC: 3.47186 cumulative IPC: 3.47245 (Simulation time: 0 hr 20 min 49 sec) 

Warmup complete CPU 0 instructions: 50000001 cycles: 14399040 (Simulation time: 0 hr 20 min 49 sec) 

% increase in all ip prefetch 421.759
% increase in all ip prefetch -2.17514
Heartbeat CPU 0 instructions: 60000002 cycles: 30825320 heartbeat IPC: 0.608781 cumulative IPC: 0.608781 (Simulation time: 0 hr 23 min 55 sec) 
Heartbeat CPU 0 instructions: 70000001 cycles: 47286985 heartbeat IPC: 0.607472 cumulative IPC: 0.608126 (Simulation time: 0 hr 26 min 55 sec) 
*** Reached end of trace for Core: 0 Repeating trace: ../IPC-traces//server_031.champsimtrace.xz
Heartbeat CPU 0 instructions: 80000001 cycles: 63576953 heartbeat IPC: 0.613875 cumulative IPC: 0.61003 (Simulation time: 0 hr 29 min 57 sec) 
Heartbeat CPU 0 instructions: 90000000 cycles: 79852385 heartbeat IPC: 0.614423 cumulative IPC: 0.611122 (Simulation time: 0 hr 32 min 57 sec) 
Heartbeat CPU 0 instructions: 100000000 cycles: 96042819 heartbeat IPC: 0.617649 cumulative IPC: 0.612417 (Simulation time: 0 hr 37 min 1 sec) 
Finished CPU 0 instructions: 50000000 cycles: 81643785 cumulative IPC: 0.612417 (Simulation time: 0 hr 37 min 1 sec) 

ChampSim completed all CPUs

Region of Interest Statistics

CPU 0 cumulative IPC: 0.612417 instructions: 50000000 cycles: 81643785

CPU 0 Average Load ROB stall cycles: 1.96373e+07
CPU 0 Fraction of times ROB stalled by Loads: 35.4525
CPU 0 Percentage of Load stall cycles in Total stall cycles: 2.72072e+08
Issued all: 27916538
Issued LT all: 22059123
rob_not_full_when_issued_lt_all: 21926925
Issued LT one: 17134548
rob_not_full_when_issued_lt_one: 17019904
 Total stall cycles: 69186769
 Total load stall cycles: 188237923014291
CPU 0 NUM of IPS identified critical: 0
CPU 0 Num of Load IPs stalling ROB: 10883
Threshold modification factor: -1
Max PIST entries: 64
Min PIST entries: 0
Avg PIST entries: 32
Trouble in retire width: 0.893932
MaC = Marked as critical.
lt_50_percent_before_Mac: 0
gt_90_percent_before_Mac: 0
gt_75_percent_before_Mac: 0
gt_50_percent_before_Mac: 0
stall_proportion_bin_same_before_after: 0
stall_proportion_bin_lower_before_after: 0
stall_proportion_bin_upper_before_after: 0
average_stall_proportion_before: -nan
average_stall_proportion_after: -nan
Critical IP stalls, total frequency: 0
Non-critical IP stalls, total frequency: 3398375
Total Freq all stalling IPs: 3398375
stat_90_percent_critical_ip_stalls_freq: 3058558
stat_90_percent_non_critical_ip_stalls_freq: 339817
Critical_IP_ROB_Stalls_Bucket_0: 0
Non-critical_IP_ROB_Stalls_Bucket_0: 2345592
Critical_IP_ROB_Stalls_Bucket_1: 0
Non-critical_IP_ROB_Stalls_Bucket_1: 705133
Critical_IP_ROB_Stalls_Bucket_2: 0
Non-critical_IP_ROB_Stalls_Bucket_2: 242034
Critical_IP_ROB_Stalls_Bucket_3: 0
Non-critical_IP_ROB_Stalls_Bucket_3: 65804
Critical_IP_ROB_Stalls_Bucket_4: 0
Non-critical_IP_ROB_Stalls_Bucket_4: 23979
Critical_IP_ROB_Stalls_Bucket_5: 0
Non-critical_IP_ROB_Stalls_Bucket_5: 8212
Critical_IP_ROB_Stalls_Bucket_6: 0
Non-critical_IP_ROB_Stalls_Bucket_6: 7621
0 => IPs accounting for >50 percent of stalls, 1 => 55, 2 => 60, 3 => 65 and so on till 90.
percent50: 50.0278 num IPs:  481
percent55: 55.016 num IPs: 679
percent60: 60.0089 num IPs: 884
percent65: 65.0213 num IPs: 1096
percent70: 70.0007 num IPs: 1311
percent75: 75.0173 num IPs: 1528
percent80: 80.0187 num IPs: 1748
percent85: 85.0026 num IPs: 1977
percent90: 90.0004 num IPs: 2238
Critical_ROB_Stalls_Percent_0_Bucket_0: 978231
Non-critical_ROB_Stalls_Percent_0_Bucket_0: 1367361
Critical_ROB_Stalls_Percent_0_Bucket_1: 440679
Non-critical_ROB_Stalls_Percent_0_Bucket_1: 264454
Critical_ROB_Stalls_Percent_0_Bucket_2: 186345
Non-critical_ROB_Stalls_Percent_0_Bucket_2: 55689
Critical_ROB_Stalls_Percent_0_Bucket_3: 59319
Non-critical_ROB_Stalls_Percent_0_Bucket_3: 6485
Critical_ROB_Stalls_Percent_0_Bucket_4: 21217
Non-critical_ROB_Stalls_Percent_0_Bucket_4: 2762
Critical_ROB_Stalls_Percent_0_Bucket_5: 7258
Non-critical_ROB_Stalls_Percent_0_Bucket_5: 954
Critical_ROB_Stalls_Percent_0_Bucket_6: 7082
Non-critical_ROB_Stalls_Percent_0_Bucket_6: 539
Critical_ROB_Stalls_Percent_1_Bucket_0: 1107912
Non-critical_ROB_Stalls_Percent_1_Bucket_0: 1237680
Critical_ROB_Stalls_Percent_1_Bucket_1: 471984
Non-critical_ROB_Stalls_Percent_1_Bucket_1: 233149
Critical_ROB_Stalls_Percent_1_Bucket_2: 193551
Non-critical_ROB_Stalls_Percent_1_Bucket_2: 48483
Critical_ROB_Stalls_Percent_1_Bucket_3: 59881
Non-critical_ROB_Stalls_Percent_1_Bucket_3: 5923
Critical_ROB_Stalls_Percent_1_Bucket_4: 21969
Non-critical_ROB_Stalls_Percent_1_Bucket_4: 2010
Critical_ROB_Stalls_Percent_1_Bucket_5: 7269
Non-critical_ROB_Stalls_Percent_1_Bucket_5: 943
Critical_ROB_Stalls_Percent_1_Bucket_6: 7083
Non-critical_ROB_Stalls_Percent_1_Bucket_6: 538
Critical_ROB_Stalls_Percent_2_Bucket_0: 1214205
Non-critical_ROB_Stalls_Percent_2_Bucket_0: 1131387
Critical_ROB_Stalls_Percent_2_Bucket_1: 523925
Non-critical_ROB_Stalls_Percent_2_Bucket_1: 181208
Critical_ROB_Stalls_Percent_2_Bucket_2: 204302
Non-critical_ROB_Stalls_Percent_2_Bucket_2: 37732
Critical_ROB_Stalls_Percent_2_Bucket_3: 60471
Non-critical_ROB_Stalls_Percent_2_Bucket_3: 5333
Critical_ROB_Stalls_Percent_2_Bucket_4: 22069
Non-critical_ROB_Stalls_Percent_2_Bucket_4: 1910
Critical_ROB_Stalls_Percent_2_Bucket_5: 7270
Non-critical_ROB_Stalls_Percent_2_Bucket_5: 942
Critical_ROB_Stalls_Percent_2_Bucket_6: 7083
Non-critical_ROB_Stalls_Percent_2_Bucket_6: 538
Critical_ROB_Stalls_Percent_3_Bucket_0: 1345345
Non-critical_ROB_Stalls_Percent_3_Bucket_0: 1000247
Critical_ROB_Stalls_Percent_3_Bucket_1: 556444
Non-critical_ROB_Stalls_Percent_3_Bucket_1: 148689
Critical_ROB_Stalls_Percent_3_Bucket_2: 210868
Non-critical_ROB_Stalls_Percent_3_Bucket_2: 31166
Critical_ROB_Stalls_Percent_3_Bucket_3: 60572
Non-critical_ROB_Stalls_Percent_3_Bucket_3: 5232
Critical_ROB_Stalls_Percent_3_Bucket_4: 22081
Non-critical_ROB_Stalls_Percent_3_Bucket_4: 1898
Critical_ROB_Stalls_Percent_3_Bucket_5: 7270
Non-critical_ROB_Stalls_Percent_3_Bucket_5: 942
Critical_ROB_Stalls_Percent_3_Bucket_6: 7087
Non-critical_ROB_Stalls_Percent_3_Bucket_6: 534
Critical_ROB_Stalls_Percent_4_Bucket_0: 1491790
Non-critical_ROB_Stalls_Percent_4_Bucket_0: 853802
Critical_ROB_Stalls_Percent_4_Bucket_1: 577641
Non-critical_ROB_Stalls_Percent_4_Bucket_1: 127492
Critical_ROB_Stalls_Percent_4_Bucket_2: 212416
Non-critical_ROB_Stalls_Percent_4_Bucket_2: 29618
Critical_ROB_Stalls_Percent_4_Bucket_3: 60621
Non-critical_ROB_Stalls_Percent_4_Bucket_3: 5183
Critical_ROB_Stalls_Percent_4_Bucket_4: 22081
Non-critical_ROB_Stalls_Percent_4_Bucket_4: 1898
Critical_ROB_Stalls_Percent_4_Bucket_5: 7270
Non-critical_ROB_Stalls_Percent_4_Bucket_5: 942
Critical_ROB_Stalls_Percent_4_Bucket_6: 7087
Non-critical_ROB_Stalls_Percent_4_Bucket_6: 534
Critical_ROB_Stalls_Percent_5_Bucket_0: 1628163
Non-critical_ROB_Stalls_Percent_5_Bucket_0: 717429
Critical_ROB_Stalls_Percent_5_Bucket_1: 603295
Non-critical_ROB_Stalls_Percent_5_Bucket_1: 101838
Critical_ROB_Stalls_Percent_5_Bucket_2: 220311
Non-critical_ROB_Stalls_Percent_5_Bucket_2: 21723
Critical_ROB_Stalls_Percent_5_Bucket_3: 61136
Non-critical_ROB_Stalls_Percent_5_Bucket_3: 4668
Critical_ROB_Stalls_Percent_5_Bucket_4: 22112
Non-critical_ROB_Stalls_Percent_5_Bucket_4: 1867
Critical_ROB_Stalls_Percent_5_Bucket_5: 7278
Non-critical_ROB_Stalls_Percent_5_Bucket_5: 934
Critical_ROB_Stalls_Percent_5_Bucket_6: 7089
Non-critical_ROB_Stalls_Percent_5_Bucket_6: 532
Critical_ROB_Stalls_Percent_6_Bucket_0: 1777685
Non-critical_ROB_Stalls_Percent_6_Bucket_0: 567907
Critical_ROB_Stalls_Percent_6_Bucket_1: 619243
Non-critical_ROB_Stalls_Percent_6_Bucket_1: 85890
Critical_ROB_Stalls_Percent_6_Bucket_2: 224740
Non-critical_ROB_Stalls_Percent_6_Bucket_2: 17294
Critical_ROB_Stalls_Percent_6_Bucket_3: 61182
Non-critical_ROB_Stalls_Percent_6_Bucket_3: 4622
Critical_ROB_Stalls_Percent_6_Bucket_4: 22121
Non-critical_ROB_Stalls_Percent_6_Bucket_4: 1858
Critical_ROB_Stalls_Percent_6_Bucket_5: 7278
Non-critical_ROB_Stalls_Percent_6_Bucket_5: 934
Critical_ROB_Stalls_Percent_6_Bucket_6: 7098
Non-critical_ROB_Stalls_Percent_6_Bucket_6: 523
Critical_ROB_Stalls_Percent_7_Bucket_0: 1925837
Non-critical_ROB_Stalls_Percent_7_Bucket_0: 419755
Critical_ROB_Stalls_Percent_7_Bucket_1: 637671
Non-critical_ROB_Stalls_Percent_7_Bucket_1: 67462
Critical_ROB_Stalls_Percent_7_Bucket_2: 227279
Non-critical_ROB_Stalls_Percent_7_Bucket_2: 14755
Critical_ROB_Stalls_Percent_7_Bucket_3: 61392
Non-critical_ROB_Stalls_Percent_7_Bucket_3: 4412
Critical_ROB_Stalls_Percent_7_Bucket_4: 22159
Non-critical_ROB_Stalls_Percent_7_Bucket_4: 1820
Critical_ROB_Stalls_Percent_7_Bucket_5: 7280
Non-critical_ROB_Stalls_Percent_7_Bucket_5: 932
Critical_ROB_Stalls_Percent_7_Bucket_6: 7098
Non-critical_ROB_Stalls_Percent_7_Bucket_6: 523
Critical_ROB_Stalls_Percent_8_Bucket_0: 2077977
Non-critical_ROB_Stalls_Percent_8_Bucket_0: 267615
Critical_ROB_Stalls_Percent_8_Bucket_1: 650103
Non-critical_ROB_Stalls_Percent_8_Bucket_1: 55030
Critical_ROB_Stalls_Percent_8_Bucket_2: 230188
Non-critical_ROB_Stalls_Percent_8_Bucket_2: 11846
Critical_ROB_Stalls_Percent_8_Bucket_3: 62465
Non-critical_ROB_Stalls_Percent_8_Bucket_3: 3339
Critical_ROB_Stalls_Percent_8_Bucket_4: 22720
Non-critical_ROB_Stalls_Percent_8_Bucket_4: 1259
Critical_ROB_Stalls_Percent_8_Bucket_5: 7889
Non-critical_ROB_Stalls_Percent_8_Bucket_5: 323
Critical_ROB_Stalls_Percent_8_Bucket_6: 7216
Non-critical_ROB_Stalls_Percent_8_Bucket_6: 405
Average ROB occupancy Load Stall Begin: 37.653
Average ROB occupancy Load Stall End: 46.1971
Min ROB occupancy Load Stall Begin: 1
Max ROB occupancy Load Stall Begin: 352
Min ROB occupancy Load Stall End: 1
Max ROB occupancy Load Stall End: 352
Average ROB occupancy Critical Load Stall Begin: -nan
Average ROB occupancy Critical Load Stall End: -nan
Min ROB occupancy Critical Load Stall Begin: 400
Max ROB occupancy Critical Load Stall Begin: 0
Min ROB occupancy Critical Load Stall End: 400
Max ROB occupancy Critical Load Stall End: 0
 ROB Load Stall Begin Bucket Count 0: 2611430
 ROB Load Stall End Bucket Count 0: 2345592
 ROB Critical Load Stall Begin Bucket Count 0: 0
 ROB Critical Load Stall End Bucket Count 0: 0
 ROB Load Stall Begin Bucket Count 1: 517045
 ROB Load Stall End Bucket Count 1: 705133
 ROB Critical Load Stall Begin Bucket Count 1: 0
 ROB Critical Load Stall End Bucket Count 1: 0
 ROB Load Stall Begin Bucket Count 2: 186295
 ROB Load Stall End Bucket Count 2: 242034
 ROB Critical Load Stall Begin Bucket Count 2: 0
 ROB Critical Load Stall End Bucket Count 2: 0
 ROB Load Stall Begin Bucket Count 3: 51794
 ROB Load Stall End Bucket Count 3: 65804
 ROB Critical Load Stall Begin Bucket Count 3: 0
 ROB Critical Load Stall End Bucket Count 3: 0
 ROB Load Stall Begin Bucket Count 4: 18516
 ROB Load Stall End Bucket Count 4: 23979
 ROB Critical Load Stall Begin Bucket Count 4: 0
 ROB Critical Load Stall End Bucket Count 4: 0
 ROB Load Stall Begin Bucket Count 5: 6516
 ROB Load Stall End Bucket Count 5: 8212
 ROB Critical Load Stall Begin Bucket Count 5: 0
 ROB Critical Load Stall End Bucket Count 5: 0
 ROB Load Stall Begin Bucket Count 6: 6779
 ROB Load Stall End Bucket Count 6: 7621
 ROB Critical Load Stall Begin Bucket Count 6: 0
 ROB Critical Load Stall End Bucket Count 6: 0
PIST Tag Read Accesses: 2469464
PIST Read Accesses: 1234732
PIST Tag Write Accesses: 2469464
PIST Write Accesses: 1234732
Criticality detector called times: 3308477
Max global_stall_cycles_count: 2180677
Threshold Modified: 1 times, factor: -1
Sturdy critical IP cache stats: 
 Unused entries: 0
CIC Tag Read Accesses: 0
CIC Read Accesses: 0
CIC Tag Write Accesses: 0
CIC Write Accesses: 0
Wobbly critical IP cache stats: 
 Unused entries: 123
CIC Tag Read Accesses: 84257891
CIC Read Accesses: 0
CIC Tag Write Accesses: 5
CIC Write Accesses: 0
ITLB TOTAL     ACCESS:   10419168  HIT:    9654238  MISS:     764930  HIT %:    92.6584  MISS %:    7.34157   MPKI: 15.2986
ITLB LOAD TRANSLATION ACCESS:    8206689  HIT:    8154705  MISS:      51984  HIT %:    99.3666  MISS %:   0.633435   MPKI: 1.03968
ITLB TRANSLATION FROM L1D PREFETCHER ACCESS:    2212479  HIT:    1499533  MISS:     712946  HIT %:    67.7761  MISS %:    32.2239   MPKI: 14.2589
ITLB PREFETCH  REQUESTED:          0  ISSUED:          0  USEFUL:     567355  USELESS:     145586
ITLB USEFUL LOAD PREFETCHES:     567355 PREFETCH ISSUED TO LOWER LEVEL:          0  ACCURACY: inf
ITLB TIMELY PREFETCHES:     567355 LATE PREFETCHES: 28 DROPPED PREFETCHES: 5545
ITLB PREFETCHES SAME FILL-ORIGIN LEVEL: 0 DIFFERENT FILL-ORIGIN LEVEL: 0
ITLB AVERAGE MISS LATENCY: 1655.7 cycles
ITLB RQ	ACCESS:   15954117	FORWARD:          0	MERGED:    5488814	TO_CACHE:   10465303

DTLB TOTAL     ACCESS:   11398058  HIT:   10840150  MISS:     557908  HIT %:    95.1052  MISS %:    4.89476   MPKI: 11.1582
DTLB LOAD TRANSLATION ACCESS:   11398058  HIT:   10840150  MISS:     557908  HIT %:    95.1052  MISS %:    4.89476   MPKI: 11.1582
DTLB PREFETCH  REQUESTED:          0  ISSUED:          0  USEFUL:          0  USELESS:          0
DTLB USEFUL LOAD PREFETCHES:          0 PREFETCH ISSUED TO LOWER LEVEL:          0  ACCURACY: -nan
DTLB TIMELY PREFETCHES:          0 LATE PREFETCHES: 0 DROPPED PREFETCHES: 0
DTLB PREFETCHES SAME FILL-ORIGIN LEVEL: 0 DIFFERENT FILL-ORIGIN LEVEL: 0
DTLB AVERAGE MISS LATENCY: 10.94 cycles
DTLB RQ	ACCESS:   14920022	FORWARD:          0	MERGED:    3494579	TO_CACHE:   11425443

STLB TOTAL     ACCESS:    1342381  HIT:    1326749  MISS:      15632  HIT %:    98.8355  MISS %:     1.1645   MPKI: 0.31264
STLB LOAD TRANSLATION ACCESS:     609864  HIT:     596027  MISS:      13837  HIT %:    97.7311  MISS %:    2.26887   MPKI: 0.27674
STLB TRANSLATION FROM L1D PREFETCHER ACCESS:     732517  HIT:     730722  MISS:       1795  HIT %:     99.755  MISS %:   0.245046   MPKI: 0.0359
STLB PREFETCH  REQUESTED:          0  ISSUED:          0  USEFUL:       1499  USELESS:        288
STLB USEFUL LOAD PREFETCHES:       1499 PREFETCH ISSUED TO LOWER LEVEL:          0  ACCURACY: inf
STLB TIMELY PREFETCHES:       1499 LATE PREFETCHES: 0 DROPPED PREFETCHES: 5545
STLB PREFETCHES SAME FILL-ORIGIN LEVEL: 0 DIFFERENT FILL-ORIGIN LEVEL: 0
STLB AVERAGE MISS LATENCY: 74.9611 cycles
STLB RQ	ACCESS:    1352816	FORWARD:          0	MERGED:       4891	TO_CACHE:    1347925

STLB Hit, L1D data hit: 0
STLB Hit, L2C data hit: 0
STLB Hit, LLC data hit: 0
STLB Hit, LLC data miss: 0
STLB STLB hints to L2: 0
L1D TOTAL     ACCESS:   14408760  HIT:   13154001  MISS:    1254759  HIT %:    91.2917  MISS %:    8.70831   MPKI: 25.0952
L1D LOAD      ACCESS:    7962859  HIT:    7026533  MISS:     936326  HIT %:    88.2413  MISS %:    11.7587   MPKI: 18.7265
L1D RFO       ACCESS:    6424866  HIT:    6120621  MISS:     304245  HIT %:    95.2646  MISS %:    4.73543   MPKI: 6.0849
L1D PREFETCH  ACCESS:      21035  HIT:       6847  MISS:      14188  HIT %:    32.5505  MISS %:    67.4495   MPKI: 0.28376
L1D PREFETCH  REQUESTED:      48871  ISSUED:      48871  USEFUL:       2611  USELESS:      11603
L1D USEFUL LOAD PREFETCHES:       2611 PREFETCH ISSUED TO LOWER LEVEL:      16659  ACCURACY: 15.6732
L1D TIMELY PREFETCHES:       2611 LATE PREFETCHES: 2468 DROPPED PREFETCHES: 0
L1D PREFETCHES SAME FILL-ORIGIN LEVEL: 16659 DIFFERENT FILL-ORIGIN LEVEL: 0
L1D AVERAGE MISS LATENCY: 46051.7 cycles
L1D RQ	ACCESS:   11355395	FORWARD:          0	MERGED:    3199261	TO_CACHE:    8005221
L1D WQ	ACCESS:    6987103	FORWARD:     150918	MERGED:      72302	TO_CACHE:    6914801
L1D PQ	ACCESS:      24438	FORWARD:          0	MERGED:          0	TO_CACHE:      24433

L1D UNIQUE REGIONS ACCESSED: 0
L1D REGIONS CONFLICTS: 0
L1D Cross Page Prefetch Requests: 0
L1D Same Page Prefetch Requests: 364532
L1D ROI Sum of L1D PQ occupancy: 322087
L1D PREFETCHES PUSHED FROM L2C: 0
L1I TOTAL     ACCESS:   15859765  HIT:   11486561  MISS:    4373204  HIT %:    72.4258  MISS %:    27.5742   MPKI: 87.4641
L1I LOAD      ACCESS:    9700174  HIT:    9619505  MISS:      80669  HIT %:    99.1684  MISS %:   0.831624   MPKI: 1.61338
L1I PREFETCH  ACCESS:    6159591  HIT:    1867056  MISS:    4292535  HIT %:    30.3114  MISS %:    69.6886   MPKI: 85.8507
L1I PREFETCH  REQUESTED:    6374488  ISSUED:    6361485  USEFUL:    3050789  USELESS:    1241748
L1I USEFUL LOAD PREFETCHES:    3050789 PREFETCH ISSUED TO LOWER LEVEL:    4307690  ACCURACY: 70.8219
L1I TIMELY PREFETCHES:    3050789 LATE PREFETCHES: 15161 DROPPED PREFETCHES: 12186
L1I PREFETCHES SAME FILL-ORIGIN LEVEL: 4307690 DIFFERENT FILL-ORIGIN LEVEL: 0
L1I AVERAGE MISS LATENCY: 193230 cycles
L1I RQ	ACCESS:   13650186	FORWARD:          0	MERGED:    3938733	TO_CACHE:    9711453
L1I PQ	ACCESS:    6361485	FORWARD:          0	MERGED:     118821	TO_CACHE:    6242664

BTB TOTAL     ACCESS:    6108847  HIT:    4217946  MISS:    1890901  HIT %:    69.0465  MISS %:    30.9535   MPKI: 37.818
BTB BRANCH_DIRECT_JUMP	ACCESS:     546484  HIT:     394596  MISS:     151888
BTB BRANCH_INDIRECT	ACCESS:     172436  HIT:     135684  MISS:      36752
BTB BRANCH_CONDITIONAL	ACCESS:    2972195  HIT:    2453643  MISS:     518552
BTB BRANCH_DIRECT_CALL	ACCESS:    1018499  HIT:     648527  MISS:     369972
BTB BRANCH_INDIRECT_CALL	ACCESS:     190374  HIT:     119426  MISS:      70948
BTB BRANCH_RETURN	ACCESS:    1208859  HIT:     466070  MISS:     742789
BTB BRANCH_OTHER ACCESS:          0  HIT:          0  MISS:          0

L2C TOTAL     ACCESS:    6277445  HIT:    5871900  MISS:     405545  HIT %:    93.5396  MISS %:    6.46035   MPKI: 8.1109
L2C LOAD      ACCESS:     999357  HIT:     868273  MISS:     131084  HIT %:    86.8832  MISS %:    13.1168   MPKI: 2.62168
L2C DATA LOAD MPKI: 2.43888
L2C INSTRUCTION LOAD MPKI: 0.1828
L2C RFO       ACCESS:     304241  HIT:     275816  MISS:      28425  HIT %:    90.6571  MISS %:    9.34292   MPKI: 0.5685
L2C PREFETCH  ACCESS:    4363058  HIT:    4142793  MISS:     220265  HIT %:    94.9516  MISS %:    5.04841   MPKI: 4.4053
L2C DATA PREFETCH MPKI: 0.32392
L2C INSTRUCTION PREFETCH MPKI: 4.08138
L2C WRITEBACK ACCESS:     577898  HIT:     564330  MISS:      13568  HIT %:    97.6522  MISS %:    2.34782   MPKI: 0.27136
L2C LOAD TRANSLATION ACCESS:      21068  HIT:       9782  MISS:      11286  HIT %:    46.4306  MISS %:    53.5694   MPKI: 0.22572
L2C TRANSLATION FROM L1D PREFETCHER ACCESS:      11823  HIT:      10906  MISS:        917  HIT %:    92.2439  MISS %:    7.75607   MPKI: 0.01834
L2C PREFETCH  REQUESTED:      57243  ISSUED:      57243  USEFUL:       3494  USELESS:     219057
L2C USEFUL LOAD PREFETCHES:       3494 PREFETCH ISSUED TO LOWER LEVEL:     220376  ACCURACY: 1.58547
L2C TIMELY PREFETCHES:       3494 LATE PREFETCHES: 111 DROPPED PREFETCHES: 0
L2C PREFETCHES SAME FILL-ORIGIN LEVEL: 7128 DIFFERENT FILL-ORIGIN LEVEL: 0
L2C AVERAGE MISS LATENCY: 43.7871 cycles
L2C RQ	ACCESS:    1336497	FORWARD:          0	MERGED:          0	TO_CACHE:    1336489
L2C WQ	ACCESS:     577898	FORWARD:          8	MERGED:          0	TO_CACHE:     577898
L2C PQ	ACCESS:    4381592	FORWARD:          0	MERGED:      18070	TO_CACHE:    4363522

L2C Instructions Evicting Data 79085
L2C Translations Evicting Data 7448
L2C Data Evicting Data 88725
L2C Instructions Evicting Instructions 130382
L2C Translations Evicting Instructions 3869
L2C Data Evicting Instructions 70618
L2C Instructions Evicting Translations 3742
L2C Translations Evicting Translations 886
L2C Data Evicting Translations 7222
L2C Dense regions hint from L2: 0
PSCL5 TOTAL     ACCESS:      21177  HIT:      21177  MISS:          0  HIT %:        100  MISS %:          0   MPKI: 0
PSCL5 LOAD TRANSLATION ACCESS:      13837  HIT:      13837  MISS:          0  HIT %:        100  MISS %:          0   MPKI: 0
PSCL5 TRANSLATION FROM L1D PREFETCHER ACCESS:       7340  HIT:       7340  MISS:          0  HIT %:        100  MISS %:          0   MPKI: 0
PSCL5 PREFETCH  REQUESTED:          0  ISSUED:          0  USEFUL:          0  USELESS:          0
PSCL5 USEFUL LOAD PREFETCHES:          0 PREFETCH ISSUED TO LOWER LEVEL:          0  ACCURACY: -nan
PSCL5 TIMELY PREFETCHES:          0 LATE PREFETCHES: 0 DROPPED PREFETCHES: 0
PSCL5 PREFETCHES SAME FILL-ORIGIN LEVEL: 0 DIFFERENT FILL-ORIGIN LEVEL: 0

PSCL4 TOTAL     ACCESS:      19801  HIT:      19605  MISS:        196  HIT %:    99.0102  MISS %:   0.989849   MPKI: 0.00392
PSCL4 LOAD TRANSLATION ACCESS:      12859  HIT:      12663  MISS:        196  HIT %:    98.4758  MISS %:    1.52422   MPKI: 0.00392
PSCL4 TRANSLATION FROM L1D PREFETCHER ACCESS:       6942  HIT:       6942  MISS:          0  HIT %:        100  MISS %:          0   MPKI: 0
PSCL4 PREFETCH  REQUESTED:          0  ISSUED:          0  USEFUL:          0  USELESS:          0
PSCL4 USEFUL LOAD PREFETCHES:          0 PREFETCH ISSUED TO LOWER LEVEL:          0  ACCURACY: -nan
PSCL4 TIMELY PREFETCHES:          0 LATE PREFETCHES: 0 DROPPED PREFETCHES: 0
PSCL4 PREFETCHES SAME FILL-ORIGIN LEVEL: 0 DIFFERENT FILL-ORIGIN LEVEL: 0

PSCL3 TOTAL     ACCESS:      21056  HIT:      20857  MISS:        199  HIT %:    99.0549  MISS %:   0.945099   MPKI: 0.00398
PSCL3 LOAD TRANSLATION ACCESS:      13848  HIT:      13649  MISS:        199  HIT %:     98.563  MISS %:    1.43703   MPKI: 0.00398
PSCL3 TRANSLATION FROM L1D PREFETCHER ACCESS:       7208  HIT:       7208  MISS:          0  HIT %:        100  MISS %:          0   MPKI: 0
PSCL3 PREFETCH  REQUESTED:          0  ISSUED:          0  USEFUL:          0  USELESS:          0
PSCL3 USEFUL LOAD PREFETCHES:          0 PREFETCH ISSUED TO LOWER LEVEL:          0  ACCURACY: -nan
PSCL3 TIMELY PREFETCHES:          0 LATE PREFETCHES: 0 DROPPED PREFETCHES: 0
PSCL3 PREFETCHES SAME FILL-ORIGIN LEVEL: 0 DIFFERENT FILL-ORIGIN LEVEL: 0

PSCL2 TOTAL     ACCESS:      17680  HIT:       9977  MISS:       7703  HIT %:     56.431  MISS %:     43.569   MPKI: 0.15406
PSCL2 LOAD TRANSLATION ACCESS:      14611  HIT:       6908  MISS:       7703  HIT %:    47.2794  MISS %:    52.7206   MPKI: 0.15406
PSCL2 TRANSLATION FROM L1D PREFETCHER ACCESS:       3069  HIT:       3069  MISS:          0  HIT %:        100  MISS %:          0   MPKI: 0
PSCL2 PREFETCH  REQUESTED:          0  ISSUED:          0  USEFUL:          0  USELESS:          0
PSCL2 USEFUL LOAD PREFETCHES:          0 PREFETCH ISSUED TO LOWER LEVEL:          0  ACCURACY: -nan
PSCL2 TIMELY PREFETCHES:          0 LATE PREFETCHES: 0 DROPPED PREFETCHES: 0
PSCL2 PREFETCHES SAME FILL-ORIGIN LEVEL: 0 DIFFERENT FILL-ORIGIN LEVEL: 0

LLC TOTAL     ACCESS:     430876  HIT:     389257  MISS:      41619  HIT %:    90.3408  MISS %:    9.65916   MPKI: 0.83238
LLC LOAD      ACCESS:     130976  HIT:     101467  MISS:      29509  HIT %:    77.4699  MISS %:    22.5301   MPKI: 0.59018
LLC RFO       ACCESS:      28422  HIT:      24228  MISS:       4194  HIT %:    85.2438  MISS %:    14.7562   MPKI: 0.08388
LLC PREFETCH  ACCESS:     220376  HIT:     214156  MISS:       6220  HIT %:    97.1776  MISS %:    2.82245   MPKI: 0.1244
LLC WRITEBACK ACCESS:      38899  HIT:      38630  MISS:        269  HIT %:    99.3085  MISS %:   0.691534   MPKI: 0.00538
LLC LOAD TRANSLATION ACCESS:      11286  HIT:       9875  MISS:       1411  HIT %:    87.4978  MISS %:    12.5022   MPKI: 0.02822
LLC TRANSLATION FROM L1D PREFETCHER ACCESS:        917  HIT:        901  MISS:         16  HIT %:    98.2552  MISS %:    1.74482   MPKI: 0.00032
LLC PREFETCH  REQUESTED:          0  ISSUED:          0  USEFUL:       1395  USELESS:      15756
LLC USEFUL LOAD PREFETCHES:       1395 PREFETCH ISSUED TO LOWER LEVEL:       6220  ACCURACY: 22.4277
LLC TIMELY PREFETCHES:       1395 LATE PREFETCHES: 0 DROPPED PREFETCHES: 0
LLC PREFETCHES SAME FILL-ORIGIN LEVEL: 0 DIFFERENT FILL-ORIGIN LEVEL: 0
LLC AVERAGE MISS LATENCY: 143.5 cycles
LLC RQ	ACCESS:     171601	FORWARD:          0	MERGED:          0	TO_CACHE:     171601
LLC WQ	ACCESS:      38899	FORWARD:          0	MERGED:          0	TO_CACHE:      38899
LLC PQ	ACCESS:     220376	FORWARD:          0	MERGED:          0	TO_CACHE:     220376

LLC Dense regions hint to LLC: 0

RAW hits: 1102011
Loads Generated: 12457406
Loads sent to L1D: 11355395
Stores Generated: 6987099
Stores sent to L1D: 6987103
Major fault: 0 Minor fault: 6261
Allocated PAGES: 6261
I-Shadow cache 408 bytes
Touched + WorthPF tables 6144 bytes 
MMA filter 174 bytes 
FNL filter 272 bytes 
TOTAL PREFETCHER STORAGE SIZE: 25174 bytes
CPU 0 L1I next line prefetcher final stats

stream: 
stream:times selected: 989565
stream:pref_filled: 95879
stream:pref_useful: 24861
stream:pref_late: 8178
stream:misses: 9532
stream:misses_by_poll: 0

CS: 
CS:times selected: 156119
CS:pref_filled: 45829
CS:pref_useful: 32963
CS:pref_late: 3471
CS:misses: 47453
CS:misses_by_poll: 0

CPLX: 
CPLX:times selected: 831733
CPLX:pref_filled: 29093
CPLX:pref_useful: 7958
CPLX:pref_late: 2249
CPLX:misses: 166844
CPLX:misses_by_poll: 1

NL_L1: 
NL:times selected: 3963
NL:pref_filled: 228
NL:pref_useful: 48
NL:pref_late: 22
NL:misses: 169
NL:misses_by_poll: 0

total selections: 1981380
total_filled: 14188
total_useful: 2611
total_late: 15053
total_polluted: 1
total_misses_after_warmup: 978694
conflicts: 3381312
Degree Incremented Times: 0
Degree Decremented Times: 114834

L1 IP Table Write Accesses: 4425048
L1 IP Table Read Accesses: 1043736
L1 RST Write Accesses: 493609
L1 RST Read Accesses: 987218
L1 CSPT Write Accesses: 493609
L1 CSPT Read Accesses: 900581
L1 RR Filter Tag Write Accesses: 24438
L1 RR Filter Tag Read Accesses: 1827482
L1 IP Table Tag Write Accesses: 8005227
L1 IP Table Tag Read Accesses: 8005227
L1 RST Tag Write Accesses: 0
L1 RST Tag Read Accesses: 5535658
L1 RR Filter Write Accesses: 0
L1 RR Filter Read Accesses: 65042
test: 165592
L2 IP Table Read Accesses: 5464084
L2 IP Table Write Accesses: 10268741
L2 IP Table Tag Read Accesses: 5255115
L2 IP Table Tag Write Accesses: 5255115

DRAM Statistics
 CHANNEL 0
 RQ ROW_BUFFER_HIT:      13548  ROW_BUFFER_MISS:      27797
 DBUS_CONGESTED:         14
 WQ ROW_BUFFER_HIT:       1017  ROW_BUFFER_MISS:       3300  FULL:          0

 AVG_CONGESTED_CYCLE: 4
 All warmup complete: 2
Channel 0 Bank busy for read cycles: 0
Channel 0 Bank busy for write cycles: 0
Channel 0
Rank 0
0banks busy for read cycles: 77219731
0banks busy for write cycles: 2285
1banks busy for read cycles: 2630998
1banks busy for write cycles: 575475
2banks busy for read cycles: 583164
2banks busy for write cycles: 208769
3banks busy for read cycles: 165599
3banks busy for write cycles: 88387
4banks busy for read cycles: 36947
4banks busy for write cycles: 40462
5banks busy for read cycles: 16047
5banks busy for write cycles: 17591
6banks busy for read cycles: 12877
6banks busy for write cycles: 5579
7banks busy for read cycles: 13388
7banks busy for write cycles: 1778
8banks busy for read cycles: 19626
8banks busy for write cycles: 5083

CPU 0 Branch Prediction Accuracy: 99.6894% MPKI: 0.58048 Average ROB Occupancy at Mispredict: 90.2651
Branch types
NOT_BRANCH: 40655601 81.3112%
BRANCH_DIRECT_JUMP: 546484 1.09297%
BRANCH_INDIRECT: 172436 0.344872%
BRANCH_CONDITIONAL: 6207566 12.4151%
BRANCH_DIRECT_CALL: 1018499 2.037%
BRANCH_INDIRECT_CALL: 190374 0.380748%
BRANCH_RETURN: 1208859 2.41772%
BRANCH_OTHER: 0 0%

DRAM PAGES: 1048576
Allocated PAGES: 6261
