
*** ChampSim Multicore Out-of-Order Simulator ***

Warmup Instructions: 50000000
Simulation Instructions: 50000000
Number of CPUs: 1
LLC sets: 2048
LLC ways: 16
Off-chip DRAM Size: 4096 MB Channels: 1 Width: 64-bit Data Rate: 6400 MT/s
CPU 0 runs ../IPC-traces//server_019.champsimtrace.xz
.xz
NUM_OF_IPS_IN_CRITICAL_IP_TRAINING: 64
NUM_OF_CRITICAL_IP_TRAINING_TABLE_WAYS: 2
NUM_OF_CRITICAL_IP_TRAINING_TABLE_SETS: 32
WOBBLY_CRITICAL_IP_CACHE_SETS: 32
WOBBLY_CRITICAL_IP_CACHE_WAYS: 4
BTB has LRU replacement policy
ITLB has LRU replacement policy
DTLB has LRU replacement policy
STLB has LRU replacement policy
CPU 0 L1I next line prefetcher
L1I has LRU replacement policy
IP Table Entries: 64
L1D has LRU replacement policy
Initialize SRRIP state for L2C
Initialize DRRIP state for LLC
Heartbeat CPU 0 instructions: 10000002 cycles: 3147515 heartbeat IPC: 3.17711 cumulative IPC: 3.17711 (Simulation time: 0 hr 5 min 24 sec) 
Heartbeat CPU 0 instructions: 20000001 cycles: 6292414 heartbeat IPC: 3.17975 cumulative IPC: 3.17843 (Simulation time: 0 hr 10 min 37 sec) 
Heartbeat CPU 0 instructions: 30000001 cycles: 9436961 heartbeat IPC: 3.18011 cumulative IPC: 3.17899 (Simulation time: 0 hr 14 min 49 sec) 
Heartbeat CPU 0 instructions: 40000002 cycles: 12595756 heartbeat IPC: 3.16576 cumulative IPC: 3.17567 (Simulation time: 0 hr 19 min 6 sec) 
Heartbeat CPU 0 instructions: 50000001 cycles: 15738061 heartbeat IPC: 3.18238 cumulative IPC: 3.17701 (Simulation time: 0 hr 22 min 59 sec) 

Warmup complete CPU 0 instructions: 50000001 cycles: 15738061 (Simulation time: 0 hr 22 min 59 sec) 

% increase in all ip prefetch 651.605
% increase in all ip prefetch -14.8346
Heartbeat CPU 0 instructions: 60000003 cycles: 37978831 heartbeat IPC: 0.449625 cumulative IPC: 0.449625 (Simulation time: 0 hr 28 min 28 sec) 
Heartbeat CPU 0 instructions: 70000002 cycles: 63742034 heartbeat IPC: 0.38815 cumulative IPC: 0.416632 (Simulation time: 0 hr 33 min 35 sec) 
Heartbeat CPU 0 instructions: 80000001 cycles: 87997162 heartbeat IPC: 0.412284 cumulative IPC: 0.415173 (Simulation time: 0 hr 38 min 57 sec) 
Heartbeat CPU 0 instructions: 90000000 cycles: 108228322 heartbeat IPC: 0.494287 cumulative IPC: 0.432478 (Simulation time: 0 hr 46 min 1 sec) 
Heartbeat CPU 0 instructions: 100000002 cycles: 128305348 heartbeat IPC: 0.498082 cumulative IPC: 0.444179 (Simulation time: 0 hr 52 min 0 sec) 
Finished CPU 0 instructions: 50000001 cycles: 112567287 cumulative IPC: 0.444179 (Simulation time: 0 hr 52 min 0 sec) 

ChampSim completed all CPUs

Region of Interest Statistics

CPU 0 cumulative IPC: 0.444179 instructions: 50000001 cycles: 112567287

CPU 0 Average Load ROB stall cycles: 3.39369e+07
CPU 0 Fraction of times ROB stalled by Loads: 45.6521
CPU 0 Percentage of Load stall cycles in Total stall cycles: 2.52061e+08
Issued all: 50008395
Issued LT all: 44587237
rob_not_full_when_issued_lt_all: 17208821
Issued LT one: 39007221
rob_not_full_when_issued_lt_one: 13298689
 Total stall cycles: 94063798
 Total load stall cycles: 237097746334272
CPU 0 NUM of IPS identified critical: 0
CPU 0 Num of Load IPs stalling ROB: 5524
Threshold modification factor: -1
Max PIST entries: 64
Min PIST entries: 0
Avg PIST entries: 30.29
Trouble in retire width: 0.821733
MaC = Marked as critical.
lt_50_percent_before_Mac: 0
gt_90_percent_before_Mac: 0
gt_75_percent_before_Mac: 0
gt_50_percent_before_Mac: 0
stall_proportion_bin_same_before_after: 0
stall_proportion_bin_lower_before_after: 0
stall_proportion_bin_upper_before_after: 0
average_stall_proportion_before: -nan
average_stall_proportion_after: -nan
Critical IP stalls, total frequency: 0
Non-critical IP stalls, total frequency: 3189456
Total Freq all stalling IPs: 3189456
stat_90_percent_critical_ip_stalls_freq: 2870798
stat_90_percent_non_critical_ip_stalls_freq: 318658
Critical_IP_ROB_Stalls_Bucket_0: 0
Non-critical_IP_ROB_Stalls_Bucket_0: 457399
Critical_IP_ROB_Stalls_Bucket_1: 0
Non-critical_IP_ROB_Stalls_Bucket_1: 577085
Critical_IP_ROB_Stalls_Bucket_2: 0
Non-critical_IP_ROB_Stalls_Bucket_2: 469024
Critical_IP_ROB_Stalls_Bucket_3: 0
Non-critical_IP_ROB_Stalls_Bucket_3: 334628
Critical_IP_ROB_Stalls_Bucket_4: 0
Non-critical_IP_ROB_Stalls_Bucket_4: 188866
Critical_IP_ROB_Stalls_Bucket_5: 0
Non-critical_IP_ROB_Stalls_Bucket_5: 171952
Critical_IP_ROB_Stalls_Bucket_6: 0
Non-critical_IP_ROB_Stalls_Bucket_6: 990502
0 => IPs accounting for >50 percent of stalls, 1 => 55, 2 => 60, 3 => 65 and so on till 90.
percent50: 50.2173 num IPs:  8
percent55: 55.2232 num IPs: 15
percent60: 60.1037 num IPs: 34
percent65: 65.0419 num IPs: 69
percent70: 70.0275 num IPs: 127
percent75: 75.0567 num IPs: 204
percent80: 80.0568 num IPs: 282
percent85: 85.0333 num IPs: 366
percent90: 90.0092 num IPs: 474
Critical_ROB_Stalls_Percent_0_Bucket_0: 36408
Non-critical_ROB_Stalls_Percent_0_Bucket_0: 420991
Critical_ROB_Stalls_Percent_0_Bucket_1: 93421
Non-critical_ROB_Stalls_Percent_0_Bucket_1: 483664
Critical_ROB_Stalls_Percent_0_Bucket_2: 181932
Non-critical_ROB_Stalls_Percent_0_Bucket_2: 287092
Critical_ROB_Stalls_Percent_0_Bucket_3: 185059
Non-critical_ROB_Stalls_Percent_0_Bucket_3: 149569
Critical_ROB_Stalls_Percent_0_Bucket_4: 123338
Non-critical_ROB_Stalls_Percent_0_Bucket_4: 65528
Critical_ROB_Stalls_Percent_0_Bucket_5: 114447
Non-critical_ROB_Stalls_Percent_0_Bucket_5: 57505
Critical_ROB_Stalls_Percent_0_Bucket_6: 867053
Non-critical_ROB_Stalls_Percent_0_Bucket_6: 123449
Critical_ROB_Stalls_Percent_1_Bucket_0: 62129
Non-critical_ROB_Stalls_Percent_1_Bucket_0: 395270
Critical_ROB_Stalls_Percent_1_Bucket_1: 148549
Non-critical_ROB_Stalls_Percent_1_Bucket_1: 428536
Critical_ROB_Stalls_Percent_1_Bucket_2: 202669
Non-critical_ROB_Stalls_Percent_1_Bucket_2: 266355
Critical_ROB_Stalls_Percent_1_Bucket_3: 217822
Non-critical_ROB_Stalls_Percent_1_Bucket_3: 116806
Critical_ROB_Stalls_Percent_1_Bucket_4: 132713
Non-critical_ROB_Stalls_Percent_1_Bucket_4: 56153
Critical_ROB_Stalls_Percent_1_Bucket_5: 125664
Non-critical_ROB_Stalls_Percent_1_Bucket_5: 46288
Critical_ROB_Stalls_Percent_1_Bucket_6: 871774
Non-critical_ROB_Stalls_Percent_1_Bucket_6: 118728
Critical_ROB_Stalls_Percent_2_Bucket_0: 117616
Non-critical_ROB_Stalls_Percent_2_Bucket_0: 339783
Critical_ROB_Stalls_Percent_2_Bucket_1: 193868
Non-critical_ROB_Stalls_Percent_2_Bucket_1: 383217
Critical_ROB_Stalls_Percent_2_Bucket_2: 220255
Non-critical_ROB_Stalls_Percent_2_Bucket_2: 248769
Critical_ROB_Stalls_Percent_2_Bucket_3: 230778
Non-critical_ROB_Stalls_Percent_2_Bucket_3: 103850
Critical_ROB_Stalls_Percent_2_Bucket_4: 139508
Non-critical_ROB_Stalls_Percent_2_Bucket_4: 49358
Critical_ROB_Stalls_Percent_2_Bucket_5: 132288
Non-critical_ROB_Stalls_Percent_2_Bucket_5: 39664
Critical_ROB_Stalls_Percent_2_Bucket_6: 882669
Non-critical_ROB_Stalls_Percent_2_Bucket_6: 107833
Critical_ROB_Stalls_Percent_3_Bucket_0: 175179
Non-critical_ROB_Stalls_Percent_3_Bucket_0: 282220
Critical_ROB_Stalls_Percent_3_Bucket_1: 225181
Non-critical_ROB_Stalls_Percent_3_Bucket_1: 351904
Critical_ROB_Stalls_Percent_3_Bucket_2: 249516
Non-critical_ROB_Stalls_Percent_3_Bucket_2: 219508
Critical_ROB_Stalls_Percent_3_Bucket_3: 237004
Non-critical_ROB_Stalls_Percent_3_Bucket_3: 97624
Critical_ROB_Stalls_Percent_3_Bucket_4: 144959
Non-critical_ROB_Stalls_Percent_3_Bucket_4: 43907
Critical_ROB_Stalls_Percent_3_Bucket_5: 138326
Non-critical_ROB_Stalls_Percent_3_Bucket_5: 33626
Critical_ROB_Stalls_Percent_3_Bucket_6: 904319
Non-critical_ROB_Stalls_Percent_3_Bucket_6: 86183
Critical_ROB_Stalls_Percent_4_Bucket_0: 211024
Non-critical_ROB_Stalls_Percent_4_Bucket_0: 246375
Critical_ROB_Stalls_Percent_4_Bucket_1: 273171
Non-critical_ROB_Stalls_Percent_4_Bucket_1: 303914
Critical_ROB_Stalls_Percent_4_Bucket_2: 281561
Non-critical_ROB_Stalls_Percent_4_Bucket_2: 187463
Critical_ROB_Stalls_Percent_4_Bucket_3: 248878
Non-critical_ROB_Stalls_Percent_4_Bucket_3: 85750
Critical_ROB_Stalls_Percent_4_Bucket_4: 149788
Non-critical_ROB_Stalls_Percent_4_Bucket_4: 39078
Critical_ROB_Stalls_Percent_4_Bucket_5: 144043
Non-critical_ROB_Stalls_Percent_4_Bucket_5: 27909
Critical_ROB_Stalls_Percent_4_Bucket_6: 925032
Non-critical_ROB_Stalls_Percent_4_Bucket_6: 65470
Critical_ROB_Stalls_Percent_5_Bucket_0: 231893
Non-critical_ROB_Stalls_Percent_5_Bucket_0: 225506
Critical_ROB_Stalls_Percent_5_Bucket_1: 331778
Non-critical_ROB_Stalls_Percent_5_Bucket_1: 245307
Critical_ROB_Stalls_Percent_5_Bucket_2: 319815
Non-critical_ROB_Stalls_Percent_5_Bucket_2: 149209
Critical_ROB_Stalls_Percent_5_Bucket_3: 270009
Non-critical_ROB_Stalls_Percent_5_Bucket_3: 64619
Critical_ROB_Stalls_Percent_5_Bucket_4: 163484
Non-critical_ROB_Stalls_Percent_5_Bucket_4: 25382
Critical_ROB_Stalls_Percent_5_Bucket_5: 149126
Non-critical_ROB_Stalls_Percent_5_Bucket_5: 22826
Critical_ROB_Stalls_Percent_5_Bucket_6: 927791
Non-critical_ROB_Stalls_Percent_5_Bucket_6: 62711
Critical_ROB_Stalls_Percent_6_Bucket_0: 267362
Non-critical_ROB_Stalls_Percent_6_Bucket_0: 190037
Critical_ROB_Stalls_Percent_6_Bucket_1: 390348
Non-critical_ROB_Stalls_Percent_6_Bucket_1: 186737
Critical_ROB_Stalls_Percent_6_Bucket_2: 351645
Non-critical_ROB_Stalls_Percent_6_Bucket_2: 117379
Critical_ROB_Stalls_Percent_6_Bucket_3: 287360
Non-critical_ROB_Stalls_Percent_6_Bucket_3: 47268
Critical_ROB_Stalls_Percent_6_Bucket_4: 168779
Non-critical_ROB_Stalls_Percent_6_Bucket_4: 20087
Critical_ROB_Stalls_Percent_6_Bucket_5: 153761
Non-critical_ROB_Stalls_Percent_6_Bucket_5: 18191
Critical_ROB_Stalls_Percent_6_Bucket_6: 934115
Non-critical_ROB_Stalls_Percent_6_Bucket_6: 56387
Critical_ROB_Stalls_Percent_7_Bucket_0: 313669
Non-critical_ROB_Stalls_Percent_7_Bucket_0: 143730
Critical_ROB_Stalls_Percent_7_Bucket_1: 438617
Non-critical_ROB_Stalls_Percent_7_Bucket_1: 138468
Critical_ROB_Stalls_Percent_7_Bucket_2: 389547
Non-critical_ROB_Stalls_Percent_7_Bucket_2: 79477
Critical_ROB_Stalls_Percent_7_Bucket_3: 294804
Non-critical_ROB_Stalls_Percent_7_Bucket_3: 39824
Critical_ROB_Stalls_Percent_7_Bucket_4: 172546
Non-critical_ROB_Stalls_Percent_7_Bucket_4: 16320
Critical_ROB_Stalls_Percent_7_Bucket_5: 157423
Non-critical_ROB_Stalls_Percent_7_Bucket_5: 14529
Critical_ROB_Stalls_Percent_7_Bucket_6: 945489
Non-critical_ROB_Stalls_Percent_7_Bucket_6: 45013
Critical_ROB_Stalls_Percent_8_Bucket_0: 357047
Non-critical_ROB_Stalls_Percent_8_Bucket_0: 100352
Critical_ROB_Stalls_Percent_8_Bucket_1: 486787
Non-critical_ROB_Stalls_Percent_8_Bucket_1: 90298
Critical_ROB_Stalls_Percent_8_Bucket_2: 417098
Non-critical_ROB_Stalls_Percent_8_Bucket_2: 51926
Critical_ROB_Stalls_Percent_8_Bucket_3: 307693
Non-critical_ROB_Stalls_Percent_8_Bucket_3: 26935
Critical_ROB_Stalls_Percent_8_Bucket_4: 177561
Non-critical_ROB_Stalls_Percent_8_Bucket_4: 11305
Critical_ROB_Stalls_Percent_8_Bucket_5: 162550
Non-critical_ROB_Stalls_Percent_8_Bucket_5: 9402
Critical_ROB_Stalls_Percent_8_Bucket_6: 962062
Non-critical_ROB_Stalls_Percent_8_Bucket_6: 28440
Average ROB occupancy Load Stall Begin: 181.176
Average ROB occupancy Load Stall End: 190.5
Min ROB occupancy Load Stall Begin: 1
Max ROB occupancy Load Stall Begin: 352
Min ROB occupancy Load Stall End: 1
Max ROB occupancy Load Stall End: 352
Average ROB occupancy Critical Load Stall Begin: -nan
Average ROB occupancy Critical Load Stall End: -nan
Min ROB occupancy Critical Load Stall Begin: 400
Max ROB occupancy Critical Load Stall Begin: 0
Min ROB occupancy Critical Load Stall End: 400
Max ROB occupancy Critical Load Stall End: 0
 ROB Load Stall Begin Bucket Count 0: 648938
 ROB Load Stall End Bucket Count 0: 457399
 ROB Critical Load Stall Begin Bucket Count 0: 0
 ROB Critical Load Stall End Bucket Count 0: 0
 ROB Load Stall Begin Bucket Count 1: 530587
 ROB Load Stall End Bucket Count 1: 577085
 ROB Critical Load Stall Begin Bucket Count 1: 0
 ROB Critical Load Stall End Bucket Count 1: 0
 ROB Load Stall Begin Bucket Count 2: 430721
 ROB Load Stall End Bucket Count 2: 469024
 ROB Critical Load Stall Begin Bucket Count 2: 0
 ROB Critical Load Stall End Bucket Count 2: 0
 ROB Load Stall Begin Bucket Count 3: 280123
 ROB Load Stall End Bucket Count 3: 334628
 ROB Critical Load Stall Begin Bucket Count 3: 0
 ROB Critical Load Stall End Bucket Count 3: 0
 ROB Load Stall Begin Bucket Count 4: 175023
 ROB Load Stall End Bucket Count 4: 188866
 ROB Critical Load Stall Begin Bucket Count 4: 0
 ROB Critical Load Stall End Bucket Count 4: 0
 ROB Load Stall Begin Bucket Count 5: 166110
 ROB Load Stall End Bucket Count 5: 171952
 ROB Critical Load Stall Begin Bucket Count 5: 0
 ROB Critical Load Stall End Bucket Count 5: 0
 ROB Load Stall Begin Bucket Count 6: 957954
 ROB Load Stall End Bucket Count 6: 990502
 ROB Critical Load Stall Begin Bucket Count 6: 0
 ROB Critical Load Stall End Bucket Count 6: 0
PIST Tag Read Accesses: 2485342
PIST Read Accesses: 1242671
PIST Tag Write Accesses: 2485342
PIST Write Accesses: 1242671
Criticality detector called times: 1558177
Max global_stall_cycles_count: 3927343
Threshold Modified: 1 times, factor: -1
Sturdy critical IP cache stats: 
 Unused entries: 0
CIC Tag Read Accesses: 0
CIC Read Accesses: 0
CIC Tag Write Accesses: 0
CIC Write Accesses: 0
Wobbly critical IP cache stats: 
 Unused entries: 110
CIC Tag Read Accesses: 88498287
CIC Read Accesses: 0
CIC Tag Write Accesses: 86107
CIC Write Accesses: 0
ITLB TOTAL     ACCESS:    9977699  HIT:    9547569  MISS:     430130  HIT %:    95.6891  MISS %:    4.31091   MPKI: 8.6026
ITLB LOAD TRANSLATION ACCESS:    8281732  HIT:    8272403  MISS:       9329  HIT %:    99.8874  MISS %:   0.112646   MPKI: 0.18658
ITLB TRANSLATION FROM L1D PREFETCHER ACCESS:    1695967  HIT:    1275166  MISS:     420801  HIT %:    75.1881  MISS %:    24.8119   MPKI: 8.41602
ITLB PREFETCH  REQUESTED:          0  ISSUED:          0  USEFUL:     375694  USELESS:      45099
ITLB USEFUL LOAD PREFETCHES:     375694 PREFETCH ISSUED TO LOWER LEVEL:          0  ACCURACY: inf
ITLB TIMELY PREFETCHES:     375694 LATE PREFETCHES: 260 DROPPED PREFETCHES: 90
ITLB PREFETCHES SAME FILL-ORIGIN LEVEL: 0 DIFFERENT FILL-ORIGIN LEVEL: 0
ITLB AVERAGE MISS LATENCY: 43312.1 cycles
ITLB RQ	ACCESS:   14092061	FORWARD:          0	MERGED:    4072842	TO_CACHE:   10019219

DTLB TOTAL     ACCESS:   10542062  HIT:   10099567  MISS:     442495  HIT %:    95.8026  MISS %:    4.19742   MPKI: 8.8499
DTLB LOAD TRANSLATION ACCESS:   10542062  HIT:   10099567  MISS:     442495  HIT %:    95.8026  MISS %:    4.19742   MPKI: 8.8499
DTLB PREFETCH  REQUESTED:          0  ISSUED:          0  USEFUL:          0  USELESS:          0
DTLB USEFUL LOAD PREFETCHES:          0 PREFETCH ISSUED TO LOWER LEVEL:          0  ACCURACY: -nan
DTLB TIMELY PREFETCHES:          0 LATE PREFETCHES: 0 DROPPED PREFETCHES: 0
DTLB PREFETCHES SAME FILL-ORIGIN LEVEL: 0 DIFFERENT FILL-ORIGIN LEVEL: 0
DTLB AVERAGE MISS LATENCY: 24.0244 cycles
DTLB RQ	ACCESS:   15299194	FORWARD:          0	MERGED:    4675760	TO_CACHE:   10623434

STLB TOTAL     ACCESS:    1484622  HIT:    1418541  MISS:      66081  HIT %:     95.549  MISS %:    4.45103   MPKI: 1.32162
STLB LOAD TRANSLATION ACCESS:     451564  HIT:     386460  MISS:      65104  HIT %:    85.5826  MISS %:    14.4174   MPKI: 1.30208
STLB TRANSLATION FROM L1D PREFETCHER ACCESS:    1033058  HIT:    1032081  MISS:        977  HIT %:    99.9054  MISS %:  0.0945736   MPKI: 0.01954
STLB PREFETCH  REQUESTED:          0  ISSUED:          0  USEFUL:        767  USELESS:        229
STLB USEFUL LOAD PREFETCHES:        767 PREFETCH ISSUED TO LOWER LEVEL:          0  ACCURACY: inf
STLB TIMELY PREFETCHES:        767 LATE PREFETCHES: 0 DROPPED PREFETCHES: 90
STLB PREFETCHES SAME FILL-ORIGIN LEVEL: 0 DIFFERENT FILL-ORIGIN LEVEL: 0
STLB AVERAGE MISS LATENCY: 104.509 cycles
STLB RQ	ACCESS:    1538171	FORWARD:          0	MERGED:      53457	TO_CACHE:    1484714

STLB Hit, L1D data hit: 0
STLB Hit, L2C data hit: 0
STLB Hit, LLC data hit: 0
STLB Hit, LLC data miss: 0
STLB STLB hints to L2: 0
L1D TOTAL     ACCESS:   13634864  HIT:   11752671  MISS:    1882193  HIT %:    86.1957  MISS %:    13.8043   MPKI: 37.6439
L1D LOAD      ACCESS:    7255671  HIT:    6620708  MISS:     634963  HIT %:    91.2487  MISS %:    8.75127   MPKI: 12.6993
L1D RFO       ACCESS:    5791868  HIT:    4877082  MISS:     914786  HIT %:    84.2057  MISS %:    15.7943   MPKI: 18.2957
L1D PREFETCH  ACCESS:     587325  HIT:     254881  MISS:     332444  HIT %:    43.3969  MISS %:    56.6031   MPKI: 6.64888
L1D PREFETCH  REQUESTED:    1330908  ISSUED:    1330908  USEFUL:     242084  USELESS:      90368
L1D USEFUL LOAD PREFETCHES:     242084 PREFETCH ISSUED TO LOWER LEVEL:     393335  ACCURACY: 61.5465
L1D TIMELY PREFETCHES:     242084 LATE PREFETCHES: 60883 DROPPED PREFETCHES: 0
L1D PREFETCHES SAME FILL-ORIGIN LEVEL: 393335 DIFFERENT FILL-ORIGIN LEVEL: 0
L1D AVERAGE MISS LATENCY: 2.45687e+06 cycles
L1D RQ	ACCESS:   10679102	FORWARD:          0	MERGED:    3275923	TO_CACHE:    7293896
L1D WQ	ACCESS:    8106889	FORWARD:     109283	MERGED:     101591	TO_CACHE:    8005298
L1D PQ	ACCESS:     665454	FORWARD:          0	MERGED:          0	TO_CACHE:     665454

L1D UNIQUE REGIONS ACCESSED: 0
L1D REGIONS CONFLICTS: 0
L1D Cross Page Prefetch Requests: 0
L1D Same Page Prefetch Requests: 1348711
L1D ROI Sum of L1D PQ occupancy: 9541666
L1D PREFETCHES PUSHED FROM L2C: 0
L1I TOTAL     ACCESS:   14016013  HIT:   11180592  MISS:    2835421  HIT %:    79.7701  MISS %:    20.2299   MPKI: 56.7084
L1I LOAD      ACCESS:    9631746  HIT:    9614335  MISS:      17411  HIT %:    99.8192  MISS %:   0.180767   MPKI: 0.34822
L1I PREFETCH  ACCESS:    4384267  HIT:    1566257  MISS:    2818010  HIT %:    35.7245  MISS %:    64.2755   MPKI: 56.3602
L1I PREFETCH  REQUESTED:    4623663  ISSUED:    4614248  USEFUL:    2341843  USELESS:     476193
L1I USEFUL LOAD PREFETCHES:    2341843 PREFETCH ISSUED TO LOWER LEVEL:    2823784  ACCURACY: 82.9328
L1I TIMELY PREFETCHES:    2341843 LATE PREFETCHES: 5770 DROPPED PREFETCHES: 157
L1I PREFETCHES SAME FILL-ORIGIN LEVEL: 2823784 DIFFERENT FILL-ORIGIN LEVEL: 0
L1I AVERAGE MISS LATENCY: 146390 cycles
L1I RQ	ACCESS:   13994442	FORWARD:          0	MERGED:    4359107	TO_CACHE:    9635335
L1I PQ	ACCESS:    4614248	FORWARD:          0	MERGED:     157522	TO_CACHE:    4456726

BTB TOTAL     ACCESS:    5496535  HIT:    5258217  MISS:     238318  HIT %:    95.6642  MISS %:    4.33579   MPKI: 4.76636
BTB BRANCH_DIRECT_JUMP	ACCESS:     462382  HIT:     460596  MISS:       1786
BTB BRANCH_INDIRECT	ACCESS:      45460  HIT:      45289  MISS:        171
BTB BRANCH_CONDITIONAL	ACCESS:    3246751  HIT:    3240930  MISS:       5821
BTB BRANCH_DIRECT_CALL	ACCESS:     666239  HIT:     662428  MISS:       3811
BTB BRANCH_INDIRECT_CALL	ACCESS:     204728  HIT:     179061  MISS:      25667
BTB BRANCH_RETURN	ACCESS:     870975  HIT:     669913  MISS:     201062
BTB BRANCH_OTHER ACCESS:          0  HIT:          0  MISS:          0

L2C TOTAL     ACCESS:    6102626  HIT:    4228629  MISS:    1873997  HIT %:     69.292  MISS %:     30.708   MPKI: 37.4799
L2C LOAD      ACCESS:     585714  HIT:     173741  MISS:     411973  HIT %:    29.6631  MISS %:    70.3369   MPKI: 8.23946
L2C DATA LOAD MPKI: 8.13284
L2C INSTRUCTION LOAD MPKI: 0.10662
L2C RFO       ACCESS:     914774  HIT:      35485  MISS:     879289  HIT %:     3.8791  MISS %:    96.1209   MPKI: 17.5858
L2C PREFETCH  ACCESS:    3347021  HIT:    2836808  MISS:     510213  HIT %:    84.7562  MISS %:    15.2438   MPKI: 10.2043
L2C DATA PREFETCH MPKI: 7.46134
L2C INSTRUCTION PREFETCH MPKI: 2.74292
L2C WRITEBACK ACCESS:    1162379  HIT:    1120951  MISS:      41428  HIT %:    96.4359  MISS %:    3.56407   MPKI: 0.82856
L2C LOAD TRANSLATION ACCESS:      91158  HIT:      61037  MISS:      30121  HIT %:    66.9574  MISS %:    33.0426   MPKI: 0.60242
L2C TRANSLATION FROM L1D PREFETCHER ACCESS:       1580  HIT:        607  MISS:        973  HIT %:    38.4177  MISS %:    61.5823   MPKI: 0.01946
L2C PREFETCH  REQUESTED:     329120  ISSUED:     329120  USEFUL:       8785  USELESS:     503089
L2C USEFUL LOAD PREFETCHES:       8785 PREFETCH ISSUED TO LOWER LEVEL:     511675  ACCURACY: 1.71691
L2C TIMELY PREFETCHES:       8785 LATE PREFETCHES: 1463 DROPPED PREFETCHES: 0
L2C PREFETCHES SAME FILL-ORIGIN LEVEL: 190508 DIFFERENT FILL-ORIGIN LEVEL: 0
L2C AVERAGE MISS LATENCY: 200.853 cycles
L2C RQ	ACCESS:    1593236	FORWARD:          0	MERGED:          0	TO_CACHE:    1593225
L2C WQ	ACCESS:    1162379	FORWARD:         11	MERGED:          0	TO_CACHE:    1162379
L2C PQ	ACCESS:    3546239	FORWARD:          0	MERGED:      44558	TO_CACHE:    3501681

L2C Instructions Evicting Data 128562
L2C Translations Evicting Data 28052
L2C Data Evicting Data 1507273
L2C Instructions Evicting Instructions 11447
L2C Translations Evicting Instructions 2583
L2C Data Evicting Instructions 124133
L2C Instructions Evicting Translations 2468
L2C Translations Evicting Translations 459
L2C Data Evicting Translations 27592
L2C Dense regions hint from L2: 0
PSCL5 TOTAL     ACCESS:      66171  HIT:      66171  MISS:          0  HIT %:        100  MISS %:          0   MPKI: 0
PSCL5 LOAD TRANSLATION ACCESS:      65104  HIT:      65104  MISS:          0  HIT %:        100  MISS %:          0   MPKI: 0
PSCL5 TRANSLATION FROM L1D PREFETCHER ACCESS:       1067  HIT:       1067  MISS:          0  HIT %:        100  MISS %:          0   MPKI: 0
PSCL5 PREFETCH  REQUESTED:          0  ISSUED:          0  USEFUL:          0  USELESS:          0
PSCL5 USEFUL LOAD PREFETCHES:          0 PREFETCH ISSUED TO LOWER LEVEL:          0  ACCURACY: -nan
PSCL5 TIMELY PREFETCHES:          0 LATE PREFETCHES: 0 DROPPED PREFETCHES: 0
PSCL5 PREFETCHES SAME FILL-ORIGIN LEVEL: 0 DIFFERENT FILL-ORIGIN LEVEL: 0

PSCL4 TOTAL     ACCESS:      64776  HIT:      64673  MISS:        103  HIT %:     99.841  MISS %:    0.15901   MPKI: 0.00206
PSCL4 LOAD TRANSLATION ACCESS:      63782  HIT:      63679  MISS:        103  HIT %:    99.8385  MISS %:   0.161488   MPKI: 0.00206
PSCL4 TRANSLATION FROM L1D PREFETCHER ACCESS:        994  HIT:        994  MISS:          0  HIT %:        100  MISS %:          0   MPKI: 0
PSCL4 PREFETCH  REQUESTED:          0  ISSUED:          0  USEFUL:          0  USELESS:          0
PSCL4 USEFUL LOAD PREFETCHES:          0 PREFETCH ISSUED TO LOWER LEVEL:          0  ACCURACY: -nan
PSCL4 TIMELY PREFETCHES:          0 LATE PREFETCHES: 0 DROPPED PREFETCHES: 0
PSCL4 PREFETCHES SAME FILL-ORIGIN LEVEL: 0 DIFFERENT FILL-ORIGIN LEVEL: 0

PSCL3 TOTAL     ACCESS:      65827  HIT:      65366  MISS:        461  HIT %:    99.2997  MISS %:   0.700321   MPKI: 0.00922
PSCL3 LOAD TRANSLATION ACCESS:      64873  HIT:      64412  MISS:        461  HIT %:    99.2894  MISS %:   0.710619   MPKI: 0.00922
PSCL3 TRANSLATION FROM L1D PREFETCHER ACCESS:        954  HIT:        954  MISS:          0  HIT %:        100  MISS %:          0   MPKI: 0
PSCL3 PREFETCH  REQUESTED:          0  ISSUED:          0  USEFUL:          0  USELESS:          0
PSCL3 USEFUL LOAD PREFETCHES:          0 PREFETCH ISSUED TO LOWER LEVEL:          0  ACCURACY: -nan
PSCL3 TIMELY PREFETCHES:          0 LATE PREFETCHES: 0 DROPPED PREFETCHES: 0
PSCL3 PREFETCHES SAME FILL-ORIGIN LEVEL: 0 DIFFERENT FILL-ORIGIN LEVEL: 0

PSCL2 TOTAL     ACCESS:      66111  HIT:      40143  MISS:      25968  HIT %:    60.7206  MISS %:    39.2794   MPKI: 0.51936
PSCL2 LOAD TRANSLATION ACCESS:      65438  HIT:      39470  MISS:      25968  HIT %:    60.3166  MISS %:    39.6834   MPKI: 0.51936
PSCL2 TRANSLATION FROM L1D PREFETCHER ACCESS:        673  HIT:        673  MISS:          0  HIT %:        100  MISS %:          0   MPKI: 0
PSCL2 PREFETCH  REQUESTED:          0  ISSUED:          0  USEFUL:          0  USELESS:          0
PSCL2 USEFUL LOAD PREFETCHES:          0 PREFETCH ISSUED TO LOWER LEVEL:          0  ACCURACY: -nan
PSCL2 TIMELY PREFETCHES:          0 LATE PREFETCHES: 0 DROPPED PREFETCHES: 0
PSCL2 PREFETCHES SAME FILL-ORIGIN LEVEL: 0 DIFFERENT FILL-ORIGIN LEVEL: 0

LLC TOTAL     ACCESS:    2918581  HIT:    1440485  MISS:    1478096  HIT %:    49.3557  MISS %:    50.6443   MPKI: 29.5619
LLC LOAD      ACCESS:     410559  HIT:     218522  MISS:     192037  HIT %:    53.2255  MISS %:    46.7745   MPKI: 3.84074
LLC RFO       ACCESS:     879239  HIT:     151077  MISS:     728162  HIT %:    17.1827  MISS %:    82.8173   MPKI: 14.5632
LLC PREFETCH  ACCESS:     511676  HIT:     147499  MISS:     364177  HIT %:    28.8266  MISS %:    71.1734   MPKI: 7.28354
LLC WRITEBACK ACCESS:    1086013  HIT:     905557  MISS:     180456  HIT %:    83.3836  MISS %:    16.6164   MPKI: 3.60912
LLC LOAD TRANSLATION ACCESS:      30121  HIT:      17383  MISS:      12738  HIT %:    57.7106  MISS %:    42.2894   MPKI: 0.25476
LLC TRANSLATION FROM L1D PREFETCHER ACCESS:        973  HIT:        447  MISS:        526  HIT %:    45.9404  MISS %:    54.0596   MPKI: 0.01052
LLC PREFETCH  REQUESTED:          0  ISSUED:          0  USEFUL:       4720  USELESS:     361710
LLC USEFUL LOAD PREFETCHES:       4720 PREFETCH ISSUED TO LOWER LEVEL:     364177  ACCURACY: 1.29607
LLC TIMELY PREFETCHES:       4720 LATE PREFETCHES: 0 DROPPED PREFETCHES: 0
LLC PREFETCHES SAME FILL-ORIGIN LEVEL: 0 DIFFERENT FILL-ORIGIN LEVEL: 0
LLC AVERAGE MISS LATENCY: 215.877 cycles
LLC RQ	ACCESS:    1320892	FORWARD:          0	MERGED:          0	TO_CACHE:    1320891
LLC WQ	ACCESS:    1086013	FORWARD:          1	MERGED:          0	TO_CACHE:    1086013
LLC PQ	ACCESS:     511675	FORWARD:          0	MERGED:          0	TO_CACHE:     511675

LLC Dense regions hint to LLC: 0

RAW hits: 1304843
Loads Generated: 11983945
Loads sent to L1D: 10679102
Stores Generated: 8106877
Stores sent to L1D: 8106889
Major fault: 0 Minor fault: 25901
Allocated PAGES: 25901
I-Shadow cache 408 bytes
Touched + WorthPF tables 6144 bytes 
MMA filter 174 bytes 
FNL filter 272 bytes 
TOTAL PREFETCHER STORAGE SIZE: 25174 bytes
CPU 0 L1I next line prefetcher final stats

stream: 
stream:times selected: 3376381
stream:pref_filled: 125986
stream:pref_useful: 24749
stream:pref_late: 5989
stream:misses: 30832
stream:misses_by_poll: 0

CS: 
CS:times selected: 2997067
CS:pref_filled: 565562
CS:pref_useful: 545076
CS:pref_late: 54219
CS:misses: 61292
CS:misses_by_poll: 4461

CPLX: 
CPLX:times selected: 375088
CPLX:pref_filled: 21130
CPLX:pref_useful: 1226
CPLX:pref_late: 308
CPLX:misses: 94811
CPLX:misses_by_poll: 13

NL_L1: 
NL:times selected: 2475
NL:pref_filled: 893
NL:pref_useful: 21
NL:pref_late: 4
NL:misses: 1086
NL:misses_by_poll: 0

total selections: 6751011
total_filled: 332444
total_useful: 242084
total_late: 63623
total_polluted: 4474
total_misses_after_warmup: 199760
conflicts: 118415
Degree Incremented Times: 27364
Degree Decremented Times: 126054

L1 IP Table Write Accesses: 1962954
L1 IP Table Read Accesses: 1844539
L1 RST Write Accesses: 1514989
L1 RST Read Accesses: 3029978
L1 CSPT Write Accesses: 1514989
L1 CSPT Read Accesses: 1749453
L1 RR Filter Tag Write Accesses: 665454
L1 RR Filter Tag Read Accesses: 163406130
L1 IP Table Tag Write Accesses: 2117163
L1 IP Table Tag Read Accesses: 2117163
L1 RST Tag Write Accesses: 0
L1 RST Tag Read Accesses: 13628937
L1 RR Filter Write Accesses: 0
L1 RR Filter Read Accesses: 5272353
test: 267104
L2 IP Table Read Accesses: 656869
L2 IP Table Write Accesses: 557091
L2 IP Table Tag Read Accesses: 341734
L2 IP Table Tag Write Accesses: 341734

DRAM Statistics
 CHANNEL 0
 RQ ROW_BUFFER_HIT:     404837  ROW_BUFFER_MISS:     892730
 DBUS_CONGESTED:        462
 WQ ROW_BUFFER_HIT:     255841  ROW_BUFFER_MISS:     600475  FULL:       2370

 AVG_CONGESTED_CYCLE: 3
 All warmup complete: 2
Channel 0 Bank busy for read cycles: 0
Channel 0 Bank busy for write cycles: 0
Channel 0
Rank 0
0banks busy for read cycles: 26081402
0banks busy for write cycles: 41509
1banks busy for read cycles: 18430863
1banks busy for write cycles: 6160201
2banks busy for read cycles: 11571277
2banks busy for write cycles: 3553342
3banks busy for read cycles: 7029071
3banks busy for write cycles: 2579070
4banks busy for read cycles: 6250225
4banks busy for write cycles: 2261976
5banks busy for read cycles: 1790776
5banks busy for write cycles: 1996440
6banks busy for read cycles: 1671465
6banks busy for write cycles: 1873672
7banks busy for read cycles: 1315157
7banks busy for write cycles: 2540386
8banks busy for read cycles: 5109564
8banks busy for write cycles: 12310892

CPU 0 Branch Prediction Accuracy: 99.2186% MPKI: 1.3219 Average ROB Occupancy at Mispredict: 136.096
Branch types
NOT_BRANCH: 41540709 83.0814%
BRANCH_DIRECT_JUMP: 462382 0.924764%
BRANCH_INDIRECT: 45460 0.09092%
BRANCH_CONDITIONAL: 6209260 12.4185%
BRANCH_DIRECT_CALL: 666239 1.33248%
BRANCH_INDIRECT_CALL: 204728 0.409456%
BRANCH_RETURN: 870975 1.74195%
BRANCH_OTHER: 0 0%

DRAM PAGES: 1048576
Allocated PAGES: 25901
