Initialize SIGNATURE TABLE
ST_SET: 1
ST_WAY: 256
ST_TAG_BIT: 16
ST_TAG_MASK: ffff

Initialize PATTERN TABLE
PT_SET: 512
PT_WAY: 4
SIG_DELTA_BIT: 7
C_SIG_BIT: 4
C_DELTA_BIT: 4

Initialize PREFETCH FILTER
FILTER_SET: 1024

*** ChampSim Multicore Out-of-Order Simulator ***

Warmup Instructions: 50000000
Simulation Instructions: 50000000
Number of CPUs: 1
LLC sets: 2048
LLC ways: 16
Off-chip DRAM Size: 4096 MB Channels: 1 Width: 64-bit Data Rate: 6400 MT/s
CPU 0 runs ../IPC-traces//server_022.champsimtrace.xz
.xz
NUM_OF_IPS_IN_CRITICAL_IP_TRAINING: 64
NUM_OF_CRITICAL_IP_TRAINING_TABLE_WAYS: 2
NUM_OF_CRITICAL_IP_TRAINING_TABLE_SETS: 32
WOBBLY_CRITICAL_IP_CACHE_SETS: 32
WOBBLY_CRITICAL_IP_CACHE_WAYS: 4
BTB has LRU replacement policy
ITLB has LRU replacement policy
DTLB has LRU replacement policy
STLB has LRU replacement policy
CPU 0 L1I next line prefetcher
L1I has LRU replacement policy
L1D has LRU replacement policy
Initialize SRRIP state for L2C
Initialize DRRIP state for LLC
Heartbeat CPU 0 instructions: 10000001 cycles: 3295338 heartbeat IPC: 3.03459 cumulative IPC: 3.03459 (Simulation time: 0 hr 3 min 50 sec) 
Heartbeat CPU 0 instructions: 20000000 cycles: 6600599 heartbeat IPC: 3.02548 cumulative IPC: 3.03003 (Simulation time: 0 hr 6 min 45 sec) 
Heartbeat CPU 0 instructions: 30000002 cycles: 9898777 heartbeat IPC: 3.03198 cumulative IPC: 3.03068 (Simulation time: 0 hr 9 min 12 sec) 
Heartbeat CPU 0 instructions: 40000003 cycles: 13199596 heartbeat IPC: 3.02955 cumulative IPC: 3.0304 (Simulation time: 0 hr 11 min 24 sec) 
Heartbeat CPU 0 instructions: 50000003 cycles: 16496957 heartbeat IPC: 3.03273 cumulative IPC: 3.03086 (Simulation time: 0 hr 13 min 23 sec) 

Warmup complete CPU 0 instructions: 50000003 cycles: 16496957 (Simulation time: 0 hr 13 min 23 sec) 

Heartbeat CPU 0 instructions: 60000000 cycles: 37334190 heartbeat IPC: 0.47991 cumulative IPC: 0.47991 (Simulation time: 0 hr 16 min 42 sec) 
Heartbeat CPU 0 instructions: 70000001 cycles: 58390023 heartbeat IPC: 0.474928 cumulative IPC: 0.477406 (Simulation time: 0 hr 20 min 3 sec) 
Heartbeat CPU 0 instructions: 80000000 cycles: 79252985 heartbeat IPC: 0.479318 cumulative IPC: 0.478042 (Simulation time: 0 hr 23 min 11 sec) 
Heartbeat CPU 0 instructions: 90000003 cycles: 100326510 heartbeat IPC: 0.474529 cumulative IPC: 0.477159 (Simulation time: 0 hr 27 min 56 sec) 
Heartbeat CPU 0 instructions: 100000000 cycles: 121235880 heartbeat IPC: 0.478254 cumulative IPC: 0.477377 (Simulation time: 0 hr 32 min 50 sec) 
Finished CPU 0 instructions: 50000001 cycles: 104738924 cumulative IPC: 0.477377 (Simulation time: 0 hr 32 min 50 sec) 

ChampSim completed all CPUs

Region of Interest Statistics

CPU 0 cumulative IPC: 0.477377 instructions: 50000001 cycles: 104738924

CPU 0 Average Load ROB stall cycles: 3.18834e+07
CPU 0 Fraction of times ROB stalled by Loads: 46.3241
CPU 0 Percentage of Load stall cycles in Total stall cycles: 2.58359e+08
Issued all: 55337127
Issued LT all: 50092185
rob_not_full_when_issued_lt_all: 16780864
Issued LT one: 44204942
rob_not_full_when_issued_lt_one: 12757803
 Total stall cycles: 86043674
 Total load stall cycles: 222301998801444
CPU 0 NUM of IPS identified critical: 0
CPU 0 Num of Load IPs stalling ROB: 4790
Threshold modification factor: 0
Max PIST entries: 64
Min PIST entries: 0
Avg PIST entries: 32
Trouble in retire width: 0.800979
MaC = Marked as critical.
lt_50_percent_before_Mac: 0
gt_90_percent_before_Mac: 0
gt_75_percent_before_Mac: 0
gt_50_percent_before_Mac: 0
stall_proportion_bin_same_before_after: 0
stall_proportion_bin_lower_before_after: 0
stall_proportion_bin_upper_before_after: 0
average_stall_proportion_before: -nan
average_stall_proportion_after: -nan
Critical IP stalls, total frequency: 0
Non-critical IP stalls, total frequency: 3229877
Total Freq all stalling IPs: 3229877
stat_90_percent_critical_ip_stalls_freq: 2907165
stat_90_percent_non_critical_ip_stalls_freq: 322712
Critical_IP_ROB_Stalls_Bucket_0: 0
Non-critical_IP_ROB_Stalls_Bucket_0: 488602
Critical_IP_ROB_Stalls_Bucket_1: 0
Non-critical_IP_ROB_Stalls_Bucket_1: 573989
Critical_IP_ROB_Stalls_Bucket_2: 0
Non-critical_IP_ROB_Stalls_Bucket_2: 401298
Critical_IP_ROB_Stalls_Bucket_3: 0
Non-critical_IP_ROB_Stalls_Bucket_3: 262576
Critical_IP_ROB_Stalls_Bucket_4: 0
Non-critical_IP_ROB_Stalls_Bucket_4: 177662
Critical_IP_ROB_Stalls_Bucket_5: 0
Non-critical_IP_ROB_Stalls_Bucket_5: 159923
Critical_IP_ROB_Stalls_Bucket_6: 0
Non-critical_IP_ROB_Stalls_Bucket_6: 1165827
0 => IPs accounting for >50 percent of stalls, 1 => 55, 2 => 60, 3 => 65 and so on till 90.
percent50: 50.113 num IPs:  10
percent55: 55.1903 num IPs: 26
percent60: 60.0102 num IPs: 54
percent65: 65.0381 num IPs: 98
percent70: 70.0234 num IPs: 164
percent75: 75.0043 num IPs: 231
percent80: 80.0632 num IPs: 301
percent85: 85.0375 num IPs: 378
percent90: 90.0085 num IPs: 484
Critical_ROB_Stalls_Percent_0_Bucket_0: 34019
Non-critical_ROB_Stalls_Percent_0_Bucket_0: 454583
Critical_ROB_Stalls_Percent_0_Bucket_1: 93280
Non-critical_ROB_Stalls_Percent_0_Bucket_1: 480709
Critical_ROB_Stalls_Percent_0_Bucket_2: 106920
Non-critical_ROB_Stalls_Percent_0_Bucket_2: 294378
Critical_ROB_Stalls_Percent_0_Bucket_3: 132794
Non-critical_ROB_Stalls_Percent_0_Bucket_3: 129782
Critical_ROB_Stalls_Percent_0_Bucket_4: 113380
Non-critical_ROB_Stalls_Percent_0_Bucket_4: 64282
Critical_ROB_Stalls_Percent_0_Bucket_5: 104373
Non-critical_ROB_Stalls_Percent_0_Bucket_5: 55550
Critical_ROB_Stalls_Percent_0_Bucket_6: 1033823
Non-critical_ROB_Stalls_Percent_0_Bucket_6: 132004
Critical_ROB_Stalls_Percent_1_Bucket_0: 103604
Non-critical_ROB_Stalls_Percent_1_Bucket_0: 384998
Critical_ROB_Stalls_Percent_1_Bucket_1: 149512
Non-critical_ROB_Stalls_Percent_1_Bucket_1: 424477
Critical_ROB_Stalls_Percent_1_Bucket_2: 128410
Non-critical_ROB_Stalls_Percent_1_Bucket_2: 272888
Critical_ROB_Stalls_Percent_1_Bucket_3: 137545
Non-critical_ROB_Stalls_Percent_1_Bucket_3: 125031
Critical_ROB_Stalls_Percent_1_Bucket_4: 117267
Non-critical_ROB_Stalls_Percent_1_Bucket_4: 60395
Critical_ROB_Stalls_Percent_1_Bucket_5: 107734
Non-critical_ROB_Stalls_Percent_1_Bucket_5: 52189
Critical_ROB_Stalls_Percent_1_Bucket_6: 1038507
Non-critical_ROB_Stalls_Percent_1_Bucket_6: 127320
Critical_ROB_Stalls_Percent_2_Bucket_0: 159204
Non-critical_ROB_Stalls_Percent_2_Bucket_0: 329398
Critical_ROB_Stalls_Percent_2_Bucket_1: 181237
Non-critical_ROB_Stalls_Percent_2_Bucket_1: 392752
Critical_ROB_Stalls_Percent_2_Bucket_2: 154421
Non-critical_ROB_Stalls_Percent_2_Bucket_2: 246877
Critical_ROB_Stalls_Percent_2_Bucket_3: 146475
Non-critical_ROB_Stalls_Percent_2_Bucket_3: 116101
Critical_ROB_Stalls_Percent_2_Bucket_4: 124019
Non-critical_ROB_Stalls_Percent_2_Bucket_4: 53643
Critical_ROB_Stalls_Percent_2_Bucket_5: 112301
Non-critical_ROB_Stalls_Percent_2_Bucket_5: 47622
Critical_ROB_Stalls_Percent_2_Bucket_6: 1060598
Non-critical_ROB_Stalls_Percent_2_Bucket_6: 105229
Critical_ROB_Stalls_Percent_3_Bucket_0: 203352
Non-critical_ROB_Stalls_Percent_3_Bucket_0: 285250
Critical_ROB_Stalls_Percent_3_Bucket_1: 227947
Non-critical_ROB_Stalls_Percent_3_Bucket_1: 346042
Critical_ROB_Stalls_Percent_3_Bucket_2: 187745
Non-critical_ROB_Stalls_Percent_3_Bucket_2: 213553
Critical_ROB_Stalls_Percent_3_Bucket_3: 155534
Non-critical_ROB_Stalls_Percent_3_Bucket_3: 107042
Critical_ROB_Stalls_Percent_3_Bucket_4: 129146
Non-critical_ROB_Stalls_Percent_3_Bucket_4: 48516
Critical_ROB_Stalls_Percent_3_Bucket_5: 119249
Non-critical_ROB_Stalls_Percent_3_Bucket_5: 40674
Critical_ROB_Stalls_Percent_3_Bucket_6: 1077677
Non-critical_ROB_Stalls_Percent_3_Bucket_6: 88150
Critical_ROB_Stalls_Percent_4_Bucket_0: 223888
Non-critical_ROB_Stalls_Percent_4_Bucket_0: 264714
Critical_ROB_Stalls_Percent_4_Bucket_1: 281407
Non-critical_ROB_Stalls_Percent_4_Bucket_1: 292582
Critical_ROB_Stalls_Percent_4_Bucket_2: 218847
Non-critical_ROB_Stalls_Percent_4_Bucket_2: 182451
Critical_ROB_Stalls_Percent_4_Bucket_3: 175101
Non-critical_ROB_Stalls_Percent_4_Bucket_3: 87475
Critical_ROB_Stalls_Percent_4_Bucket_4: 143387
Non-critical_ROB_Stalls_Percent_4_Bucket_4: 34275
Critical_ROB_Stalls_Percent_4_Bucket_5: 132195
Non-critical_ROB_Stalls_Percent_4_Bucket_5: 27728
Critical_ROB_Stalls_Percent_4_Bucket_6: 1086848
Non-critical_ROB_Stalls_Percent_4_Bucket_6: 78979
Critical_ROB_Stalls_Percent_5_Bucket_0: 248942
Non-critical_ROB_Stalls_Percent_5_Bucket_0: 239660
Critical_ROB_Stalls_Percent_5_Bucket_1: 330120
Non-critical_ROB_Stalls_Percent_5_Bucket_1: 243869
Critical_ROB_Stalls_Percent_5_Bucket_2: 262397
Non-critical_ROB_Stalls_Percent_5_Bucket_2: 138901
Critical_ROB_Stalls_Percent_5_Bucket_3: 201261
Non-critical_ROB_Stalls_Percent_5_Bucket_3: 61315
Critical_ROB_Stalls_Percent_5_Bucket_4: 152262
Non-critical_ROB_Stalls_Percent_5_Bucket_4: 25400
Critical_ROB_Stalls_Percent_5_Bucket_5: 134277
Non-critical_ROB_Stalls_Percent_5_Bucket_5: 25646
Critical_ROB_Stalls_Percent_5_Bucket_6: 1093291
Non-critical_ROB_Stalls_Percent_5_Bucket_6: 72536
Critical_ROB_Stalls_Percent_6_Bucket_0: 300615
Non-critical_ROB_Stalls_Percent_6_Bucket_0: 187987
Critical_ROB_Stalls_Percent_6_Bucket_1: 390552
Non-critical_ROB_Stalls_Percent_6_Bucket_1: 183437
Critical_ROB_Stalls_Percent_6_Bucket_2: 283395
Non-critical_ROB_Stalls_Percent_6_Bucket_2: 117903
Critical_ROB_Stalls_Percent_6_Bucket_3: 209907
Non-critical_ROB_Stalls_Percent_6_Bucket_3: 52669
Critical_ROB_Stalls_Percent_6_Bucket_4: 156626
Non-critical_ROB_Stalls_Percent_6_Bucket_4: 21036
Critical_ROB_Stalls_Percent_6_Bucket_5: 138025
Non-critical_ROB_Stalls_Percent_6_Bucket_5: 21898
Critical_ROB_Stalls_Percent_6_Bucket_6: 1106824
Non-critical_ROB_Stalls_Percent_6_Bucket_6: 59003
Critical_ROB_Stalls_Percent_7_Bucket_0: 342543
Non-critical_ROB_Stalls_Percent_7_Bucket_0: 146059
Critical_ROB_Stalls_Percent_7_Bucket_1: 438699
Non-critical_ROB_Stalls_Percent_7_Bucket_1: 135290
Critical_ROB_Stalls_Percent_7_Bucket_2: 324989
Non-critical_ROB_Stalls_Percent_7_Bucket_2: 76309
Critical_ROB_Stalls_Percent_7_Bucket_3: 221429
Non-critical_ROB_Stalls_Percent_7_Bucket_3: 41147
Critical_ROB_Stalls_Percent_7_Bucket_4: 159989
Non-critical_ROB_Stalls_Percent_7_Bucket_4: 17673
Critical_ROB_Stalls_Percent_7_Bucket_5: 143099
Non-critical_ROB_Stalls_Percent_7_Bucket_5: 16824
Critical_ROB_Stalls_Percent_7_Bucket_6: 1115859
Non-critical_ROB_Stalls_Percent_7_Bucket_6: 49968
Critical_ROB_Stalls_Percent_8_Bucket_0: 393936
Non-critical_ROB_Stalls_Percent_8_Bucket_0: 94666
Critical_ROB_Stalls_Percent_8_Bucket_1: 481143
Non-critical_ROB_Stalls_Percent_8_Bucket_1: 92846
Critical_ROB_Stalls_Percent_8_Bucket_2: 347395
Non-critical_ROB_Stalls_Percent_8_Bucket_2: 53903
Critical_ROB_Stalls_Percent_8_Bucket_3: 231589
Non-critical_ROB_Stalls_Percent_8_Bucket_3: 30987
Critical_ROB_Stalls_Percent_8_Bucket_4: 165280
Non-critical_ROB_Stalls_Percent_8_Bucket_4: 12382
Critical_ROB_Stalls_Percent_8_Bucket_5: 149650
Non-critical_ROB_Stalls_Percent_8_Bucket_5: 10273
Critical_ROB_Stalls_Percent_8_Bucket_6: 1138172
Non-critical_ROB_Stalls_Percent_8_Bucket_6: 27655
Average ROB occupancy Load Stall Begin: 190.265
Average ROB occupancy Load Stall End: 198.893
Min ROB occupancy Load Stall Begin: 1
Max ROB occupancy Load Stall Begin: 352
Min ROB occupancy Load Stall End: 1
Max ROB occupancy Load Stall End: 352
Average ROB occupancy Critical Load Stall Begin: -nan
Average ROB occupancy Critical Load Stall End: -nan
Min ROB occupancy Critical Load Stall Begin: 400
Max ROB occupancy Critical Load Stall Begin: 0
Min ROB occupancy Critical Load Stall End: 400
Max ROB occupancy Critical Load Stall End: 0
 ROB Load Stall Begin Bucket Count 0: 686639
 ROB Load Stall End Bucket Count 0: 488602
 ROB Critical Load Stall Begin Bucket Count 0: 0
 ROB Critical Load Stall End Bucket Count 0: 0
 ROB Load Stall Begin Bucket Count 1: 503729
 ROB Load Stall End Bucket Count 1: 573989
 ROB Critical Load Stall Begin Bucket Count 1: 0
 ROB Critical Load Stall End Bucket Count 1: 0
 ROB Load Stall Begin Bucket Count 2: 361001
 ROB Load Stall End Bucket Count 2: 401298
 ROB Critical Load Stall Begin Bucket Count 2: 0
 ROB Critical Load Stall End Bucket Count 2: 0
 ROB Load Stall Begin Bucket Count 3: 223106
 ROB Load Stall End Bucket Count 3: 262576
 ROB Critical Load Stall Begin Bucket Count 3: 0
 ROB Critical Load Stall End Bucket Count 3: 0
 ROB Load Stall Begin Bucket Count 4: 163206
 ROB Load Stall End Bucket Count 4: 177662
 ROB Critical Load Stall Begin Bucket Count 4: 0
 ROB Critical Load Stall End Bucket Count 4: 0
 ROB Load Stall Begin Bucket Count 5: 161077
 ROB Load Stall End Bucket Count 5: 159923
 ROB Critical Load Stall Begin Bucket Count 5: 0
 ROB Critical Load Stall End Bucket Count 5: 0
 ROB Load Stall Begin Bucket Count 6: 1131119
 ROB Load Stall End Bucket Count 6: 1165827
 ROB Critical Load Stall Begin Bucket Count 6: 0
 ROB Critical Load Stall End Bucket Count 6: 0
PIST Tag Read Accesses: 2442226
PIST Read Accesses: 1221113
PIST Tag Write Accesses: 2442226
PIST Write Accesses: 1221113
Criticality detector called times: 1723576
Max global_stall_cycles_count: 3754811
Threshold Modified: 0 times, factor: 0
Sturdy critical IP cache stats: 
 Unused entries: 0
CIC Tag Read Accesses: 0
CIC Read Accesses: 0
CIC Tag Write Accesses: 0
CIC Write Accesses: 0
Wobbly critical IP cache stats: 
 Unused entries: 120
CIC Tag Read Accesses: 173887282
CIC Read Accesses: 0
CIC Tag Write Accesses: 8
CIC Write Accesses: 0
ITLB TOTAL     ACCESS:   10451369  HIT:    9960847  MISS:     490522  HIT %:    95.3066  MISS %:    4.69338   MPKI: 9.81044
ITLB LOAD TRANSLATION ACCESS:    8513114  HIT:    8501343  MISS:      11771  HIT %:    99.8617  MISS %:   0.138269   MPKI: 0.23542
ITLB TRANSLATION FROM L1D PREFETCHER ACCESS:    1938255  HIT:    1459504  MISS:     478751  HIT %:    75.2999  MISS %:    24.7001   MPKI: 9.57502
ITLB PREFETCH  REQUESTED:          0  ISSUED:          0  USEFUL:     428341  USELESS:      50410
ITLB USEFUL LOAD PREFETCHES:     428341 PREFETCH ISSUED TO LOWER LEVEL:          0  ACCURACY: inf
ITLB TIMELY PREFETCHES:     428341 LATE PREFETCHES: 1114 DROPPED PREFETCHES: 0
ITLB PREFETCHES SAME FILL-ORIGIN LEVEL: 0 DIFFERENT FILL-ORIGIN LEVEL: 0
ITLB AVERAGE MISS LATENCY: 95874.6 cycles
ITLB RQ	ACCESS:   15105174	FORWARD:          0	MERGED:    4601934	TO_CACHE:   10503240

DTLB TOTAL     ACCESS:   10837130  HIT:   10426819  MISS:     410311  HIT %:    96.2138  MISS %:    3.78616   MPKI: 8.20622
DTLB LOAD TRANSLATION ACCESS:   10837130  HIT:   10426819  MISS:     410311  HIT %:    96.2138  MISS %:    3.78616   MPKI: 8.20622
DTLB PREFETCH  REQUESTED:          0  ISSUED:          0  USEFUL:          0  USELESS:          0
DTLB USEFUL LOAD PREFETCHES:          0 PREFETCH ISSUED TO LOWER LEVEL:          0  ACCURACY: -nan
DTLB TIMELY PREFETCHES:          0 LATE PREFETCHES: 0 DROPPED PREFETCHES: 0
DTLB PREFETCHES SAME FILL-ORIGIN LEVEL: 0 DIFFERENT FILL-ORIGIN LEVEL: 0
DTLB AVERAGE MISS LATENCY: 17.5181 cycles
DTLB RQ	ACCESS:   16188678	FORWARD:          0	MERGED:    5266310	TO_CACHE:   10922368

STLB TOTAL     ACCESS:     900833  HIT:     881228  MISS:      19605  HIT %:    97.8237  MISS %:    2.17632   MPKI: 0.3921
STLB LOAD TRANSLATION ACCESS:     420968  HIT:     401741  MISS:      19227  HIT %:    95.4327  MISS %:    4.56733   MPKI: 0.38454
STLB TRANSLATION FROM L1D PREFETCHER ACCESS:     479865  HIT:     479487  MISS:        378  HIT %:    99.9212  MISS %:  0.0787722   MPKI: 0.00756
STLB PREFETCH  REQUESTED:          0  ISSUED:          0  USEFUL:        160  USELESS:        218
STLB USEFUL LOAD PREFETCHES:        160 PREFETCH ISSUED TO LOWER LEVEL:          0  ACCURACY: inf
STLB TIMELY PREFETCHES:        160 LATE PREFETCHES: 0 DROPPED PREFETCHES: 0
STLB PREFETCHES SAME FILL-ORIGIN LEVEL: 0 DIFFERENT FILL-ORIGIN LEVEL: 0
STLB AVERAGE MISS LATENCY: 185.883 cycles
STLB RQ	ACCESS:     900833	FORWARD:          0	MERGED:          0	TO_CACHE:     900833

STLB Hit, L1D data hit: 0
STLB Hit, L2C data hit: 0
STLB Hit, LLC data hit: 0
STLB Hit, LLC data miss: 0
STLB STLB hints to L2: 0
L1D TOTAL     ACCESS:   13518191  HIT:   11700086  MISS:    1818105  HIT %:    86.5507  MISS %:    13.4493   MPKI: 36.3621
L1D LOAD      ACCESS:    7355705  HIT:    6533173  MISS:     822532  HIT %:    88.8178  MISS %:    11.1822   MPKI: 16.4506
L1D RFO       ACCESS:    6162486  HIT:    5166913  MISS:     995573  HIT %:    83.8446  MISS %:    16.1554   MPKI: 19.9115
L1D PREFETCH  REQUESTED:          0  ISSUED:          0  USEFUL:          0  USELESS:          0
L1D USEFUL LOAD PREFETCHES:          0 PREFETCH ISSUED TO LOWER LEVEL:          0  ACCURACY: -nan
L1D TIMELY PREFETCHES:          0 LATE PREFETCHES: 0 DROPPED PREFETCHES: 0
L1D PREFETCHES SAME FILL-ORIGIN LEVEL: 0 DIFFERENT FILL-ORIGIN LEVEL: 0
L1D AVERAGE MISS LATENCY: 181.688 cycles
L1D RQ	ACCESS:   11048351	FORWARD:          0	MERGED:    3520768	TO_CACHE:    7402938
L1D WQ	ACCESS:    8887929	FORWARD:     124645	MERGED:     102189	TO_CACHE:    8785740

L1D UNIQUE REGIONS ACCESSED: 0
L1D REGIONS CONFLICTS: 0
L1D Cross Page Prefetch Requests: 0
L1D Same Page Prefetch Requests: 0
L1D ROI Sum of L1D PQ occupancy: 0
L1D PREFETCHES PUSHED FROM L2C: 0
L1I TOTAL     ACCESS:   15028391  HIT:   11798748  MISS:    3229643  HIT %:    78.5097  MISS %:    21.4903   MPKI: 64.5929
L1I LOAD      ACCESS:    9931343  HIT:    9915599  MISS:      15744  HIT %:    99.8415  MISS %:   0.158528   MPKI: 0.31488
L1I PREFETCH  ACCESS:    5097048  HIT:    1883149  MISS:    3213899  HIT %:    36.9459  MISS %:    63.0541   MPKI: 64.278
L1I PREFETCH  REQUESTED:    5350055  ISSUED:    5333331  USEFUL:    2658569  USELESS:     555335
L1I USEFUL LOAD PREFETCHES:    2658569 PREFETCH ISSUED TO LOWER LEVEL:    3219989  ACCURACY: 82.5645
L1I TIMELY PREFETCHES:    2658569 LATE PREFETCHES: 5207 DROPPED PREFETCHES: 0
L1I PREFETCHES SAME FILL-ORIGIN LEVEL: 3219989 DIFFERENT FILL-ORIGIN LEVEL: 0
L1I AVERAGE MISS LATENCY: 110075 cycles
L1I RQ	ACCESS:   14220135	FORWARD:          0	MERGED:    4285492	TO_CACHE:    9934643
L1I PQ	ACCESS:    5333331	FORWARD:          0	MERGED:     162800	TO_CACHE:    5170531

BTB TOTAL     ACCESS:    5297027  HIT:    5037183  MISS:     259844  HIT %:    95.0945  MISS %:    4.90547   MPKI: 5.19688
BTB BRANCH_DIRECT_JUMP	ACCESS:     445734  HIT:     443706  MISS:       2028
BTB BRANCH_INDIRECT	ACCESS:      48875  HIT:      48765  MISS:        110
BTB BRANCH_CONDITIONAL	ACCESS:    2967685  HIT:    2961525  MISS:       6160
BTB BRANCH_DIRECT_CALL	ACCESS:     758262  HIT:     754131  MISS:       4131
BTB BRANCH_INDIRECT_CALL	ACCESS:     159103  HIT:     129311  MISS:      29792
BTB BRANCH_RETURN	ACCESS:     917368  HIT:     699745  MISS:     217623
BTB BRANCH_OTHER ACCESS:          0  HIT:          0  MISS:          0

L2C TOTAL     ACCESS:    6994013  HIT:    5171310  MISS:    1822703  HIT %:    73.9391  MISS %:    26.0609   MPKI: 36.4541
L2C LOAD      ACCESS:     833062  HIT:     377407  MISS:     455655  HIT %:    45.3036  MISS %:    54.6964   MPKI: 9.1131
L2C DATA LOAD MPKI: 9.03704
L2C INSTRUCTION LOAD MPKI: 0.07606
L2C RFO       ACCESS:     995569  HIT:      38174  MISS:     957395  HIT %:    3.83439  MISS %:    96.1656   MPKI: 19.1479
L2C PREFETCH  ACCESS:    3971822  HIT:    3632213  MISS:     339609  HIT %:    91.4495  MISS %:    8.55046   MPKI: 6.79218
L2C DATA PREFETCH MPKI: 3.61174
L2C INSTRUCTION PREFETCH MPKI: 3.18044
L2C WRITEBACK ACCESS:    1171868  HIT:    1111507  MISS:      60361  HIT %:    94.8492  MISS %:    5.15084   MPKI: 1.20722
L2C LOAD TRANSLATION ACCESS:      21131  HIT:      11885  MISS:       9246  HIT %:    56.2444  MISS %:    43.7556   MPKI: 0.18492
L2C TRANSLATION FROM L1D PREFETCHER ACCESS:        561  HIT:        124  MISS:        437  HIT %:    22.1034  MISS %:    77.8966   MPKI: 0.00874
L2C PREFETCH  REQUESTED:    3510688  ISSUED:    3510539  USEFUL:     178623  USELESS:     161748
L2C USEFUL LOAD PREFETCHES:     178623 PREFETCH ISSUED TO LOWER LEVEL:    2154244  ACCURACY: 8.29168
L2C TIMELY PREFETCHES:     178623 LATE PREFETCHES: 2252 DROPPED PREFETCHES: 0
L2C PREFETCHES SAME FILL-ORIGIN LEVEL: 182874 DIFFERENT FILL-ORIGIN LEVEL: 1812383
L2C AVERAGE MISS LATENCY: 174.172 cycles
L2C RQ	ACCESS:    1850334	FORWARD:          0	MERGED:          0	TO_CACHE:    1850323
L2C WQ	ACCESS:    1171868	FORWARD:         11	MERGED:          0	TO_CACHE:    1171868
L2C PQ	ACCESS:    6729647	FORWARD:          0	MERGED:     936137	TO_CACHE:    5793510

L2C Instructions Evicting Data 149042
L2C Translations Evicting Data 8767
L2C Data Evicting Data 1437726
L2C Instructions Evicting Instructions 12936
L2C Translations Evicting Instructions 880
L2C Data Evicting Instructions 143557
L2C Instructions Evicting Translations 847
L2C Translations Evicting Translations 36
L2C Data Evicting Translations 8551
L2C Dense regions hint from L2: 0
PSCL5 TOTAL     ACCESS:      19605  HIT:      19605  MISS:          0  HIT %:        100  MISS %:          0   MPKI: 0
PSCL5 LOAD TRANSLATION ACCESS:      19227  HIT:      19227  MISS:          0  HIT %:        100  MISS %:          0   MPKI: 0
PSCL5 TRANSLATION FROM L1D PREFETCHER ACCESS:        378  HIT:        378  MISS:          0  HIT %:        100  MISS %:          0   MPKI: 0
PSCL5 PREFETCH  REQUESTED:          0  ISSUED:          0  USEFUL:          0  USELESS:          0
PSCL5 USEFUL LOAD PREFETCHES:          0 PREFETCH ISSUED TO LOWER LEVEL:          0  ACCURACY: -nan
PSCL5 TIMELY PREFETCHES:          0 LATE PREFETCHES: 0 DROPPED PREFETCHES: 0
PSCL5 PREFETCHES SAME FILL-ORIGIN LEVEL: 0 DIFFERENT FILL-ORIGIN LEVEL: 0

PSCL4 TOTAL     ACCESS:      17505  HIT:      17480  MISS:         25  HIT %:    99.8572  MISS %:   0.142816   MPKI: 0.0005
PSCL4 LOAD TRANSLATION ACCESS:      17139  HIT:      17114  MISS:         25  HIT %:    99.8541  MISS %:   0.145866   MPKI: 0.0005
PSCL4 TRANSLATION FROM L1D PREFETCHER ACCESS:        366  HIT:        366  MISS:          0  HIT %:        100  MISS %:          0   MPKI: 0
PSCL4 PREFETCH  REQUESTED:          0  ISSUED:          0  USEFUL:          0  USELESS:          0
PSCL4 USEFUL LOAD PREFETCHES:          0 PREFETCH ISSUED TO LOWER LEVEL:          0  ACCURACY: -nan
PSCL4 TIMELY PREFETCHES:          0 LATE PREFETCHES: 0 DROPPED PREFETCHES: 0
PSCL4 PREFETCHES SAME FILL-ORIGIN LEVEL: 0 DIFFERENT FILL-ORIGIN LEVEL: 0

PSCL3 TOTAL     ACCESS:      19598  HIT:      19548  MISS:         50  HIT %:    99.7449  MISS %:   0.255128   MPKI: 0.001
PSCL3 LOAD TRANSLATION ACCESS:      19244  HIT:      19194  MISS:         50  HIT %:    99.7402  MISS %:   0.259821   MPKI: 0.001
PSCL3 TRANSLATION FROM L1D PREFETCHER ACCESS:        354  HIT:        354  MISS:          0  HIT %:        100  MISS %:          0   MPKI: 0
PSCL3 PREFETCH  REQUESTED:          0  ISSUED:          0  USEFUL:          0  USELESS:          0
PSCL3 USEFUL LOAD PREFETCHES:          0 PREFETCH ISSUED TO LOWER LEVEL:          0  ACCURACY: -nan
PSCL3 TIMELY PREFETCHES:          0 LATE PREFETCHES: 0 DROPPED PREFETCHES: 0
PSCL3 PREFETCHES SAME FILL-ORIGIN LEVEL: 0 DIFFERENT FILL-ORIGIN LEVEL: 0

PSCL2 TOTAL     ACCESS:      19605  HIT:      17564  MISS:       2041  HIT %:    89.5894  MISS %:    10.4106   MPKI: 0.04082
PSCL2 LOAD TRANSLATION ACCESS:      19377  HIT:      17336  MISS:       2041  HIT %:    89.4669  MISS %:    10.5331   MPKI: 0.04082
PSCL2 TRANSLATION FROM L1D PREFETCHER ACCESS:        228  HIT:        228  MISS:          0  HIT %:        100  MISS %:          0   MPKI: 0
PSCL2 PREFETCH  REQUESTED:          0  ISSUED:          0  USEFUL:          0  USELESS:          0
PSCL2 USEFUL LOAD PREFETCHES:          0 PREFETCH ISSUED TO LOWER LEVEL:          0  ACCURACY: -nan
PSCL2 TIMELY PREFETCHES:          0 LATE PREFETCHES: 0 DROPPED PREFETCHES: 0
PSCL2 PREFETCHES SAME FILL-ORIGIN LEVEL: 0 DIFFERENT FILL-ORIGIN LEVEL: 0

LLC TOTAL     ACCESS:    4282337  HIT:    3031888  MISS:    1250449  HIT %:    70.7998  MISS %:    29.2002   MPKI: 25.009
LLC LOAD      ACCESS:     453403  HIT:     341357  MISS:     112046  HIT %:    75.2878  MISS %:    24.7122   MPKI: 2.24092
LLC RFO       ACCESS:     957395  HIT:     131542  MISS:     825853  HIT %:    13.7396  MISS %:    86.2604   MPKI: 16.5171
LLC PREFETCH  ACCESS:    1766342  HIT:    1496258  MISS:     270084  HIT %:    84.7094  MISS %:    15.2906   MPKI: 5.40168
LLC WRITEBACK ACCESS:    1095514  HIT:    1060059  MISS:      35455  HIT %:    96.7636  MISS %:    3.23638   MPKI: 0.7091
LLC LOAD TRANSLATION ACCESS:       9246  HIT:       2538  MISS:       6708  HIT %:    27.4497  MISS %:    72.5503   MPKI: 0.13416
LLC TRANSLATION FROM L1D PREFETCHER ACCESS:        437  HIT:        134  MISS:        303  HIT %:    30.6636  MISS %:    69.3364   MPKI: 0.00606
LLC PREFETCH  REQUESTED:          0  ISSUED:          0  USEFUL:     101063  USELESS:     163117
LLC USEFUL LOAD PREFETCHES:     101063 PREFETCH ISSUED TO LOWER LEVEL:     272987  ACCURACY: 37.0212
LLC TIMELY PREFETCHES:     101063 LATE PREFETCHES: 2903 DROPPED PREFETCHES: 0
LLC PREFETCHES SAME FILL-ORIGIN LEVEL: 263424 DIFFERENT FILL-ORIGIN LEVEL: 0
LLC AVERAGE MISS LATENCY: 253.208 cycles
LLC RQ	ACCESS:    1420481	FORWARD:          0	MERGED:          0	TO_CACHE:    1420481
LLC WQ	ACCESS:    1095514	FORWARD:          0	MERGED:          0	TO_CACHE:    1095514
LLC PQ	ACCESS:    2154244	FORWARD:          0	MERGED:        726	TO_CACHE:    2153518

LLC Dense regions hint to LLC: 0

RAW hits: 1408384
Loads Generated: 12456735
Loads sent to L1D: 11048351
Stores Generated: 8887926
Stores sent to L1D: 8887929
Major fault: 0 Minor fault: 23677
Allocated PAGES: 23677
I-Shadow cache 408 bytes
Touched + WorthPF tables 6144 bytes 
MMA filter 174 bytes 
FNL filter 272 bytes 
TOTAL PREFETCHER STORAGE SIZE: 25174 bytes
CPU 0 L1I next line prefetcher final stats
 All Calls: 8008203
 Critical Calls: 2170193
------------------
Depth Distribution
------------------
depth 0: 0
depth 1: 1886736
depth 2: 1184124
depth 3: 649576
depth 4: 363414
depth 5: 281722
depth 6: 219121
depth 7: 145846
depth 8: 85594
depth 9: 20343
depth 10: 532
depth 11: 0
depth 12: 0
depth 13: 0
depth 14: 0
depth 15: 0
depth 16: 0
depth 17: 0
depth 18: 0
depth 19: 0
depth 20: 0
depth 21: 0
depth 22: 0
depth 23: 0
depth 24: 0
depth 25: 0
depth 26: 0
depth 27: 0
depth 28: 0
depth 29: 0
Total: 4837008
-----------------------------
-----------------------------
	Captured at Filter
-----------------------------
depth 0: 0
depth 1: 302699
depth 2: 235605
depth 3: 163863
depth 4: 65302
depth 5: 10726
depth 6: 1727
depth 7: 679
depth 8: 283
depth 9: 61
depth 10: 0
depth 11: 0
depth 12: 0
depth 13: 0
depth 14: 0
depth 15: 0
depth 16: 0
depth 17: 0
depth 18: 0
depth 19: 0
depth 20: 0
depth 21: 0
depth 22: 0
depth 23: 0
depth 24: 0
depth 25: 0
depth 26: 0
depth 27: 0
depth 28: 0
depth 29: 0
-----------------------------
-----------------------------
		Lost at Page
-----------------------------
depth 0: 0
depth 1: 45021
depth 2: 33058
depth 3: 24552
depth 4: 18168
depth 5: 20422
depth 6: 20338
depth 7: 17148
depth 8: 12157
depth 9: 3375
depth 10: 91
depth 11: 0
depth 12: 0
depth 13: 0
depth 14: 0
depth 15: 0
depth 16: 0
depth 17: 0
depth 18: 0
depth 19: 0
depth 20: 0
depth 21: 0
depth 22: 0
depth 23: 0
depth 24: 0
depth 25: 0
depth 26: 0
depth 27: 0
depth 28: 0
depth 29: 0
-----------------------------
-----------------------------
	Lost due to PQ Size
-----------------------------
160
-----------------------------
ST read accesses: 1215455
ST write accesses: 9340
PT read accesses: 28208609
PT write accesses: 1762385
FILTER read accesses: 6974015
FILTER write accesses: 2366464
GHR read accesses: 967360
GHR write accesses: 163256
GHR counter read accesses: 23345454
GHR counter write accesses: 1776722
ST tag read accesses: 439873831
ST tag write accesses: 19390194

DRAM Statistics
 CHANNEL 0
 RQ ROW_BUFFER_HIT:     405889  ROW_BUFFER_MISS:     809005
 DBUS_CONGESTED:        322
 WQ ROW_BUFFER_HIT:     214548  ROW_BUFFER_MISS:     685734  FULL:        523

 AVG_CONGESTED_CYCLE: 3
 All warmup complete: 2
Channel 0 Bank busy for read cycles: 0
Channel 0 Bank busy for write cycles: 0
Channel 0
Rank 0
0banks busy for read cycles: 26026660
0banks busy for write cycles: 46318
1banks busy for read cycles: 18849439
1banks busy for write cycles: 6328766
2banks busy for read cycles: 9513794
2banks busy for write cycles: 3152847
3banks busy for read cycles: 5344133
3banks busy for write cycles: 1763324
4banks busy for read cycles: 3578917
4banks busy for write cycles: 1297715
5banks busy for read cycles: 1761383
5banks busy for write cycles: 1119944
6banks busy for read cycles: 1506569
6banks busy for write cycles: 1046946
7banks busy for read cycles: 1699338
7banks busy for write cycles: 1881476
8banks busy for read cycles: 5912990
8banks busy for write cycles: 13908366

CPU 0 Branch Prediction Accuracy: 99.8317% MPKI: 0.27564 Average ROB Occupancy at Mispredict: 115.917
Branch types
NOT_BRANCH: 41810970 83.6219%
BRANCH_DIRECT_JUMP: 445734 0.891468%
BRANCH_INDIRECT: 48875 0.09775%
BRANCH_CONDITIONAL: 5859370 11.7187%
BRANCH_DIRECT_CALL: 758262 1.51652%
BRANCH_INDIRECT_CALL: 159103 0.318206%
BRANCH_RETURN: 917368 1.83474%
BRANCH_OTHER: 0 0%

DRAM PAGES: 1048576
Allocated PAGES: 23677
