Initialize SIGNATURE TABLE
ST_SET: 1
ST_WAY: 256
ST_TAG_BIT: 16
ST_TAG_MASK: ffff

Initialize PATTERN TABLE
PT_SET: 512
PT_WAY: 4
SIG_DELTA_BIT: 7
C_SIG_BIT: 4
C_DELTA_BIT: 4

Initialize PREFETCH FILTER
FILTER_SET: 1024

*** ChampSim Multicore Out-of-Order Simulator ***

Warmup Instructions: 50000000
Simulation Instructions: 50000000
Number of CPUs: 1
LLC sets: 2048
LLC ways: 16
Off-chip DRAM Size: 4096 MB Channels: 1 Width: 64-bit Data Rate: 6400 MT/s
CPU 0 runs ../IPC-traces//server_016.champsimtrace.xz
.xz
NUM_OF_IPS_IN_CRITICAL_IP_TRAINING: 64
NUM_OF_CRITICAL_IP_TRAINING_TABLE_WAYS: 2
NUM_OF_CRITICAL_IP_TRAINING_TABLE_SETS: 32
WOBBLY_CRITICAL_IP_CACHE_SETS: 32
WOBBLY_CRITICAL_IP_CACHE_WAYS: 4
BTB has LRU replacement policy
ITLB has LRU replacement policy
DTLB has LRU replacement policy
STLB has LRU replacement policy
CPU 0 L1I next line prefetcher
L1I has LRU replacement policy
L1D has LRU replacement policy
Initialize SRRIP state for L2C
Initialize DRRIP state for LLC
Heartbeat CPU 0 instructions: 10000000 cycles: 2875594 heartbeat IPC: 3.47754 cumulative IPC: 3.47754 (Simulation time: 0 hr 2 min 59 sec) 
Heartbeat CPU 0 instructions: 20000000 cycles: 5746341 heartbeat IPC: 3.48341 cumulative IPC: 3.48048 (Simulation time: 0 hr 5 min 32 sec) 
Heartbeat CPU 0 instructions: 30000001 cycles: 8614474 heartbeat IPC: 3.48659 cumulative IPC: 3.48251 (Simulation time: 0 hr 8 min 3 sec) 
Heartbeat CPU 0 instructions: 40000001 cycles: 11768381 heartbeat IPC: 3.17067 cumulative IPC: 3.39894 (Simulation time: 0 hr 9 min 9 sec) 
Heartbeat CPU 0 instructions: 50000002 cycles: 15003845 heartbeat IPC: 3.09075 cumulative IPC: 3.33248 (Simulation time: 0 hr 9 min 58 sec) 

Warmup complete CPU 0 instructions: 50000002 cycles: 15003845 (Simulation time: 0 hr 9 min 58 sec) 

% increase in all ip prefetch 344.183
% increase in all ip prefetch -0.0090097
Heartbeat CPU 0 instructions: 60000001 cycles: 29652836 heartbeat IPC: 0.682641 cumulative IPC: 0.682641 (Simulation time: 0 hr 11 min 54 sec) 
Heartbeat CPU 0 instructions: 70000001 cycles: 45568431 heartbeat IPC: 0.628315 cumulative IPC: 0.654352 (Simulation time: 0 hr 14 min 23 sec) 
Heartbeat CPU 0 instructions: 80000000 cycles: 61639120 heartbeat IPC: 0.622251 cumulative IPC: 0.64329 (Simulation time: 0 hr 16 min 48 sec) 
Heartbeat CPU 0 instructions: 90000000 cycles: 77257992 heartbeat IPC: 0.640251 cumulative IPC: 0.642527 (Simulation time: 0 hr 19 min 7 sec) 
Heartbeat CPU 0 instructions: 100000000 cycles: 93087656 heartbeat IPC: 0.631725 cumulative IPC: 0.640338 (Simulation time: 0 hr 21 min 31 sec) 
Finished CPU 0 instructions: 50000000 cycles: 78083812 cumulative IPC: 0.640338 (Simulation time: 0 hr 21 min 31 sec) 

ChampSim completed all CPUs

Region of Interest Statistics

CPU 0 cumulative IPC: 0.640338 instructions: 50000000 cycles: 78083812

CPU 0 Average Load ROB stall cycles: 2.01143e+07
CPU 0 Fraction of times ROB stalled by Loads: 38.0666
CPU 0 Percentage of Load stall cycles in Total stall cycles: 2.82983e+08
Issued all: 28644895
Issued LT all: 22402136
rob_not_full_when_issued_lt_all: 22095624
Issued LT one: 18221645
rob_not_full_when_issued_lt_one: 17954964
 Total stall cycles: 64978954
 Total load stall cycles: 183879134215016
CPU 0 NUM of IPS identified critical: 0
CPU 0 Num of Load IPs stalling ROB: 12068
Threshold modification factor: -1
Max PIST entries: 64
Min PIST entries: 0
Avg PIST entries: 29.7
Trouble in retire width: 0.88006
MaC = Marked as critical.
lt_50_percent_before_Mac: 0
gt_90_percent_before_Mac: 0
gt_75_percent_before_Mac: 0
gt_50_percent_before_Mac: 0
stall_proportion_bin_same_before_after: 0
stall_proportion_bin_lower_before_after: 0
stall_proportion_bin_upper_before_after: 0
average_stall_proportion_before: -nan
average_stall_proportion_after: -nan
Critical IP stalls, total frequency: 0
Non-critical IP stalls, total frequency: 3479940
Total Freq all stalling IPs: 3479940
stat_90_percent_critical_ip_stalls_freq: 3132105
stat_90_percent_non_critical_ip_stalls_freq: 347835
Critical_IP_ROB_Stalls_Bucket_0: 0
Non-critical_IP_ROB_Stalls_Bucket_0: 2551466
Critical_IP_ROB_Stalls_Bucket_1: 0
Non-critical_IP_ROB_Stalls_Bucket_1: 598207
Critical_IP_ROB_Stalls_Bucket_2: 0
Non-critical_IP_ROB_Stalls_Bucket_2: 240366
Critical_IP_ROB_Stalls_Bucket_3: 0
Non-critical_IP_ROB_Stalls_Bucket_3: 48273
Critical_IP_ROB_Stalls_Bucket_4: 0
Non-critical_IP_ROB_Stalls_Bucket_4: 16019
Critical_IP_ROB_Stalls_Bucket_5: 0
Non-critical_IP_ROB_Stalls_Bucket_5: 7801
Critical_IP_ROB_Stalls_Bucket_6: 0
Non-critical_IP_ROB_Stalls_Bucket_6: 17808
0 => IPs accounting for >50 percent of stalls, 1 => 55, 2 => 60, 3 => 65 and so on till 90.
percent50: 50.0205 num IPs:  166
percent55: 55.0293 num IPs: 287
percent60: 60.01 num IPs: 465
percent65: 65.0145 num IPs: 714
percent70: 70.0062 num IPs: 1025
percent75: 75.0006 num IPs: 1379
percent80: 80.0013 num IPs: 1827
percent85: 85.0002 num IPs: 2415
percent90: 90.0052 num IPs: 3089
Critical_ROB_Stalls_Percent_0_Bucket_0: 1193701
Non-critical_ROB_Stalls_Percent_0_Bucket_0: 1357765
Critical_ROB_Stalls_Percent_0_Bucket_1: 319520
Non-critical_ROB_Stalls_Percent_0_Bucket_1: 278687
Critical_ROB_Stalls_Percent_0_Bucket_2: 163777
Non-critical_ROB_Stalls_Percent_0_Bucket_2: 76589
Critical_ROB_Stalls_Percent_0_Bucket_3: 33584
Non-critical_ROB_Stalls_Percent_0_Bucket_3: 14689
Critical_ROB_Stalls_Percent_0_Bucket_4: 8906
Non-critical_ROB_Stalls_Percent_0_Bucket_4: 7113
Critical_ROB_Stalls_Percent_0_Bucket_5: 5670
Non-critical_ROB_Stalls_Percent_0_Bucket_5: 2131
Critical_ROB_Stalls_Percent_0_Bucket_6: 15527
Non-critical_ROB_Stalls_Percent_0_Bucket_6: 2281
Critical_ROB_Stalls_Percent_1_Bucket_0: 1278841
Non-critical_ROB_Stalls_Percent_1_Bucket_0: 1272625
Critical_ROB_Stalls_Percent_1_Bucket_1: 372491
Non-critical_ROB_Stalls_Percent_1_Bucket_1: 225716
Critical_ROB_Stalls_Percent_1_Bucket_2: 189849
Non-critical_ROB_Stalls_Percent_1_Bucket_2: 50517
Critical_ROB_Stalls_Percent_1_Bucket_3: 40172
Non-critical_ROB_Stalls_Percent_1_Bucket_3: 8101
Critical_ROB_Stalls_Percent_1_Bucket_4: 11002
Non-critical_ROB_Stalls_Percent_1_Bucket_4: 5017
Critical_ROB_Stalls_Percent_1_Bucket_5: 6451
Non-critical_ROB_Stalls_Percent_1_Bucket_5: 1350
Critical_ROB_Stalls_Percent_1_Bucket_6: 16180
Non-critical_ROB_Stalls_Percent_1_Bucket_6: 1628
Critical_ROB_Stalls_Percent_2_Bucket_0: 1398386
Non-critical_ROB_Stalls_Percent_2_Bucket_0: 1153080
Critical_ROB_Stalls_Percent_2_Bucket_1: 409881
Non-critical_ROB_Stalls_Percent_2_Bucket_1: 188326
Critical_ROB_Stalls_Percent_2_Bucket_2: 200848
Non-critical_ROB_Stalls_Percent_2_Bucket_2: 39518
Critical_ROB_Stalls_Percent_2_Bucket_3: 42005
Non-critical_ROB_Stalls_Percent_2_Bucket_3: 6268
Critical_ROB_Stalls_Percent_2_Bucket_4: 13901
Non-critical_ROB_Stalls_Percent_2_Bucket_4: 2118
Critical_ROB_Stalls_Percent_2_Bucket_5: 6907
Non-critical_ROB_Stalls_Percent_2_Bucket_5: 894
Critical_ROB_Stalls_Percent_2_Bucket_6: 16385
Non-critical_ROB_Stalls_Percent_2_Bucket_6: 1423
Critical_ROB_Stalls_Percent_3_Bucket_0: 1523881
Non-critical_ROB_Stalls_Percent_3_Bucket_0: 1027585
Critical_ROB_Stalls_Percent_3_Bucket_1: 445477
Non-critical_ROB_Stalls_Percent_3_Bucket_1: 152730
Critical_ROB_Stalls_Percent_3_Bucket_2: 210820
Non-critical_ROB_Stalls_Percent_3_Bucket_2: 29546
Critical_ROB_Stalls_Percent_3_Bucket_3: 43845
Non-critical_ROB_Stalls_Percent_3_Bucket_3: 4428
Critical_ROB_Stalls_Percent_3_Bucket_4: 14479
Non-critical_ROB_Stalls_Percent_3_Bucket_4: 1540
Critical_ROB_Stalls_Percent_3_Bucket_5: 7007
Non-critical_ROB_Stalls_Percent_3_Bucket_5: 794
Critical_ROB_Stalls_Percent_3_Bucket_6: 16957
Non-critical_ROB_Stalls_Percent_3_Bucket_6: 851
Critical_ROB_Stalls_Percent_4_Bucket_0: 1663042
Non-critical_ROB_Stalls_Percent_4_Bucket_0: 888424
Critical_ROB_Stalls_Percent_4_Bucket_1: 474798
Non-critical_ROB_Stalls_Percent_4_Bucket_1: 123409
Critical_ROB_Stalls_Percent_4_Bucket_2: 215724
Non-critical_ROB_Stalls_Percent_4_Bucket_2: 24642
Critical_ROB_Stalls_Percent_4_Bucket_3: 44148
Non-critical_ROB_Stalls_Percent_4_Bucket_3: 4125
Critical_ROB_Stalls_Percent_4_Bucket_4: 14485
Non-critical_ROB_Stalls_Percent_4_Bucket_4: 1534
Critical_ROB_Stalls_Percent_4_Bucket_5: 7018
Non-critical_ROB_Stalls_Percent_4_Bucket_5: 783
Critical_ROB_Stalls_Percent_4_Bucket_6: 16958
Non-critical_ROB_Stalls_Percent_4_Bucket_6: 850
Critical_ROB_Stalls_Percent_5_Bucket_0: 1796268
Non-critical_ROB_Stalls_Percent_5_Bucket_0: 755198
Critical_ROB_Stalls_Percent_5_Bucket_1: 507884
Non-critical_ROB_Stalls_Percent_5_Bucket_1: 90323
Critical_ROB_Stalls_Percent_5_Bucket_2: 222535
Non-critical_ROB_Stalls_Percent_5_Bucket_2: 17831
Critical_ROB_Stalls_Percent_5_Bucket_3: 44757
Non-critical_ROB_Stalls_Percent_5_Bucket_3: 3516
Critical_ROB_Stalls_Percent_5_Bucket_4: 14516
Non-critical_ROB_Stalls_Percent_5_Bucket_4: 1503
Critical_ROB_Stalls_Percent_5_Bucket_5: 7044
Non-critical_ROB_Stalls_Percent_5_Bucket_5: 757
Critical_ROB_Stalls_Percent_5_Bucket_6: 16970
Non-critical_ROB_Stalls_Percent_5_Bucket_6: 838
Critical_ROB_Stalls_Percent_6_Bucket_0: 1943302
Non-critical_ROB_Stalls_Percent_6_Bucket_0: 608164
Critical_ROB_Stalls_Percent_6_Bucket_1: 529423
Non-critical_ROB_Stalls_Percent_6_Bucket_1: 68784
Critical_ROB_Stalls_Percent_6_Bucket_2: 226839
Non-critical_ROB_Stalls_Percent_6_Bucket_2: 13527
Critical_ROB_Stalls_Percent_6_Bucket_3: 45612
Non-critical_ROB_Stalls_Percent_6_Bucket_3: 2661
Critical_ROB_Stalls_Percent_6_Bucket_4: 14675
Non-critical_ROB_Stalls_Percent_6_Bucket_4: 1344
Critical_ROB_Stalls_Percent_6_Bucket_5: 7086
Non-critical_ROB_Stalls_Percent_6_Bucket_5: 715
Critical_ROB_Stalls_Percent_6_Bucket_6: 17060
Non-critical_ROB_Stalls_Percent_6_Bucket_6: 748
Critical_ROB_Stalls_Percent_7_Bucket_0: 2093108
Non-critical_ROB_Stalls_Percent_7_Bucket_0: 458358
Critical_ROB_Stalls_Percent_7_Bucket_1: 548220
Non-critical_ROB_Stalls_Percent_7_Bucket_1: 49987
Critical_ROB_Stalls_Percent_7_Bucket_2: 231834
Non-critical_ROB_Stalls_Percent_7_Bucket_2: 8532
Critical_ROB_Stalls_Percent_7_Bucket_3: 45872
Non-critical_ROB_Stalls_Percent_7_Bucket_3: 2401
Critical_ROB_Stalls_Percent_7_Bucket_4: 14734
Non-critical_ROB_Stalls_Percent_7_Bucket_4: 1285
Critical_ROB_Stalls_Percent_7_Bucket_5: 7127
Non-critical_ROB_Stalls_Percent_7_Bucket_5: 674
Critical_ROB_Stalls_Percent_7_Bucket_6: 17082
Non-critical_ROB_Stalls_Percent_7_Bucket_6: 726
Critical_ROB_Stalls_Percent_8_Bucket_0: 2246379
Non-critical_ROB_Stalls_Percent_8_Bucket_0: 305087
Critical_ROB_Stalls_Percent_8_Bucket_1: 565906
Non-critical_ROB_Stalls_Percent_8_Bucket_1: 32301
Critical_ROB_Stalls_Percent_8_Bucket_2: 234003
Non-critical_ROB_Stalls_Percent_8_Bucket_2: 6363
Critical_ROB_Stalls_Percent_8_Bucket_3: 46453
Non-critical_ROB_Stalls_Percent_8_Bucket_3: 1820
Critical_ROB_Stalls_Percent_8_Bucket_4: 15152
Non-critical_ROB_Stalls_Percent_8_Bucket_4: 867
Critical_ROB_Stalls_Percent_8_Bucket_5: 7130
Non-critical_ROB_Stalls_Percent_8_Bucket_5: 671
Critical_ROB_Stalls_Percent_8_Bucket_6: 17082
Non-critical_ROB_Stalls_Percent_8_Bucket_6: 726
Average ROB occupancy Load Stall Begin: 34.862
Average ROB occupancy Load Stall End: 42.799
Min ROB occupancy Load Stall Begin: 1
Max ROB occupancy Load Stall Begin: 352
Min ROB occupancy Load Stall End: 1
Max ROB occupancy Load Stall End: 352
Average ROB occupancy Critical Load Stall Begin: -nan
Average ROB occupancy Critical Load Stall End: -nan
Min ROB occupancy Critical Load Stall Begin: 400
Max ROB occupancy Critical Load Stall Begin: 0
Min ROB occupancy Critical Load Stall End: 400
Max ROB occupancy Critical Load Stall End: 0
 ROB Load Stall Begin Bucket Count 0: 2748830
 ROB Load Stall End Bucket Count 0: 2551466
 ROB Critical Load Stall Begin Bucket Count 0: 0
 ROB Critical Load Stall End Bucket Count 0: 0
 ROB Load Stall Begin Bucket Count 1: 479056
 ROB Load Stall End Bucket Count 1: 598207
 ROB Critical Load Stall Begin Bucket Count 1: 0
 ROB Critical Load Stall End Bucket Count 1: 0
 ROB Load Stall Begin Bucket Count 2: 181569
 ROB Load Stall End Bucket Count 2: 240366
 ROB Critical Load Stall Begin Bucket Count 2: 0
 ROB Critical Load Stall End Bucket Count 2: 0
 ROB Load Stall Begin Bucket Count 3: 33468
 ROB Load Stall End Bucket Count 3: 48273
 ROB Critical Load Stall Begin Bucket Count 3: 0
 ROB Critical Load Stall End Bucket Count 3: 0
 ROB Load Stall Begin Bucket Count 4: 12961
 ROB Load Stall End Bucket Count 4: 16019
 ROB Critical Load Stall Begin Bucket Count 4: 0
 ROB Critical Load Stall End Bucket Count 4: 0
 ROB Load Stall Begin Bucket Count 5: 7162
 ROB Load Stall End Bucket Count 5: 7801
 ROB Critical Load Stall Begin Bucket Count 5: 0
 ROB Critical Load Stall End Bucket Count 5: 0
 ROB Load Stall Begin Bucket Count 6: 16895
 ROB Load Stall End Bucket Count 6: 17808
 ROB Critical Load Stall Begin Bucket Count 6: 0
 ROB Critical Load Stall End Bucket Count 6: 0
PIST Tag Read Accesses: 1941960
PIST Read Accesses: 970980
PIST Tag Write Accesses: 1941960
PIST Write Accesses: 970980
Criticality detector called times: 2696455
Max global_stall_cycles_count: 2010004
Threshold Modified: 1 times, factor: -1
Sturdy critical IP cache stats: 
 Unused entries: 0
CIC Tag Read Accesses: 0
CIC Read Accesses: 0
CIC Tag Write Accesses: 0
CIC Write Accesses: 0
Wobbly critical IP cache stats: 
 Unused entries: 110
CIC Tag Read Accesses: 78930003
CIC Read Accesses: 0
CIC Tag Write Accesses: 20
CIC Write Accesses: 0
ITLB TOTAL     ACCESS:   10328161  HIT:    9808191  MISS:     519970  HIT %:    94.9655  MISS %:    5.03449   MPKI: 10.3994
ITLB LOAD TRANSLATION ACCESS:    8793212  HIT:    8718679  MISS:      74533  HIT %:    99.1524  MISS %:    0.84762   MPKI: 1.49066
ITLB TRANSLATION FROM L1D PREFETCHER ACCESS:    1534949  HIT:    1089512  MISS:     445437  HIT %:    70.9803  MISS %:    29.0197   MPKI: 8.90874
ITLB PREFETCH  REQUESTED:          0  ISSUED:          0  USEFUL:     346736  USELESS:      98702
ITLB USEFUL LOAD PREFETCHES:     346736 PREFETCH ISSUED TO LOWER LEVEL:          0  ACCURACY: inf
ITLB TIMELY PREFETCHES:     346736 LATE PREFETCHES: 265 DROPPED PREFETCHES: 3128
ITLB PREFETCHES SAME FILL-ORIGIN LEVEL: 0 DIFFERENT FILL-ORIGIN LEVEL: 0
ITLB AVERAGE MISS LATENCY: 28158.3 cycles
ITLB RQ	ACCESS:   14268967	FORWARD:          0	MERGED:    3904486	TO_CACHE:   10364481

DTLB TOTAL     ACCESS:   10184433  HIT:    9800778  MISS:     383655  HIT %:    96.2329  MISS %:    3.76707   MPKI: 7.6731
DTLB LOAD TRANSLATION ACCESS:   10184433  HIT:    9800778  MISS:     383655  HIT %:    96.2329  MISS %:    3.76707   MPKI: 7.6731
DTLB PREFETCH  REQUESTED:          0  ISSUED:          0  USEFUL:          0  USELESS:          0
DTLB USEFUL LOAD PREFETCHES:          0 PREFETCH ISSUED TO LOWER LEVEL:          0  ACCURACY: -nan
DTLB TIMELY PREFETCHES:          0 LATE PREFETCHES: 0 DROPPED PREFETCHES: 0
DTLB PREFETCHES SAME FILL-ORIGIN LEVEL: 0 DIFFERENT FILL-ORIGIN LEVEL: 0
DTLB AVERAGE MISS LATENCY: 9.39115 cycles
DTLB RQ	ACCESS:   13092162	FORWARD:          0	MERGED:    2886041	TO_CACHE:   10206121

STLB TOTAL     ACCESS:     903625  HIT:     901589  MISS:       2036  HIT %:    99.7747  MISS %:   0.225315   MPKI: 0.04072
STLB LOAD TRANSLATION ACCESS:     457923  HIT:     456040  MISS:       1883  HIT %:    99.5888  MISS %:   0.411205   MPKI: 0.03766
STLB TRANSLATION FROM L1D PREFETCHER ACCESS:     445702  HIT:     445549  MISS:        153  HIT %:    99.9657  MISS %:  0.0343279   MPKI: 0.00306
STLB PREFETCH  REQUESTED:          0  ISSUED:          0  USEFUL:        137  USELESS:         16
STLB USEFUL LOAD PREFETCHES:        137 PREFETCH ISSUED TO LOWER LEVEL:          0  ACCURACY: inf
STLB TIMELY PREFETCHES:        137 LATE PREFETCHES: 0 DROPPED PREFETCHES: 3128
STLB PREFETCHES SAME FILL-ORIGIN LEVEL: 0 DIFFERENT FILL-ORIGIN LEVEL: 0
STLB AVERAGE MISS LATENCY: 78.2308 cycles
STLB RQ	ACCESS:     906753	FORWARD:          0	MERGED:          0	TO_CACHE:     906753

STLB Hit, L1D data hit: 0
STLB Hit, L2C data hit: 0
STLB Hit, LLC data hit: 0
STLB Hit, LLC data miss: 0
STLB STLB hints to L2: 0
L1D TOTAL     ACCESS:   12691809  HIT:   11863337  MISS:     828472  HIT %:    93.4724  MISS %:    6.52761   MPKI: 16.5694
L1D LOAD      ACCESS:    7418459  HIT:    6817545  MISS:     600914  HIT %:    91.8997  MISS %:    8.10025   MPKI: 12.0183
L1D RFO       ACCESS:    5273350  HIT:    5045792  MISS:     227558  HIT %:    95.6848  MISS %:    4.31525   MPKI: 4.55116
L1D PREFETCH  REQUESTED:          0  ISSUED:          0  USEFUL:          0  USELESS:          0
L1D USEFUL LOAD PREFETCHES:          0 PREFETCH ISSUED TO LOWER LEVEL:          0  ACCURACY: -nan
L1D TIMELY PREFETCHES:          0 LATE PREFETCHES: 0 DROPPED PREFETCHES: 0
L1D PREFETCHES SAME FILL-ORIGIN LEVEL: 0 DIFFERENT FILL-ORIGIN LEVEL: 0
L1D AVERAGE MISS LATENCY: 25.5759 cycles
L1D RQ	ACCESS:   10332630	FORWARD:          0	MERGED:    2774633	TO_CACHE:    7450268
L1D WQ	ACCESS:    5697707	FORWARD:     107729	MERGED:      55813	TO_CACHE:    5641894

L1D UNIQUE REGIONS ACCESSED: 0
L1D REGIONS CONFLICTS: 0
L1D Cross Page Prefetch Requests: 0
L1D Same Page Prefetch Requests: 0
L1D ROI Sum of L1D PQ occupancy: 0
L1D PREFETCHES PUSHED FROM L2C: 0
L1I TOTAL     ACCESS:   14146450  HIT:   11009888  MISS:    3136562  HIT %:    77.8279  MISS %:    22.1721   MPKI: 62.7312
L1I LOAD      ACCESS:    9935555  HIT:    9711780  MISS:     223775  HIT %:    97.7477  MISS %:    2.25226   MPKI: 4.4755
L1I PREFETCH  ACCESS:    4210895  HIT:    1298108  MISS:    2912787  HIT %:    30.8274  MISS %:    69.1726   MPKI: 58.2557
L1I PREFETCH  REQUESTED:    4420433  ISSUED:    4409831  USEFUL:    1957111  USELESS:     955631
L1I USEFUL LOAD PREFETCHES:    1957111 PREFETCH ISSUED TO LOWER LEVEL:    2938902  ACCURACY: 66.5933
L1I TIMELY PREFETCHES:    1957111 LATE PREFETCHES: 26114 DROPPED PREFETCHES: 7510
L1I PREFETCHES SAME FILL-ORIGIN LEVEL: 2938902 DIFFERENT FILL-ORIGIN LEVEL: 0
L1I AVERAGE MISS LATENCY: 499062 cycles
L1I RQ	ACCESS:   13363097	FORWARD:          0	MERGED:    3408340	TO_CACHE:    9954757
L1I PQ	ACCESS:    4409831	FORWARD:          0	MERGED:      95621	TO_CACHE:    4314210

BTB TOTAL     ACCESS:    6534034  HIT:    5095597  MISS:    1438437  HIT %:    77.9855  MISS %:    22.0145   MPKI: 28.7687
BTB BRANCH_DIRECT_JUMP	ACCESS:     487044  HIT:     364834  MISS:     122210
BTB BRANCH_INDIRECT	ACCESS:     169158  HIT:     142414  MISS:      26744
BTB BRANCH_CONDITIONAL	ACCESS:    4098719  HIT:    3717570  MISS:     381149
BTB BRANCH_DIRECT_CALL	ACCESS:     755585  HIT:     471450  MISS:     284135
BTB BRANCH_INDIRECT_CALL	ACCESS:     133962  HIT:      76124  MISS:      57838
BTB BRANCH_RETURN	ACCESS:     889566  HIT:     323205  MISS:     566361
BTB BRANCH_OTHER ACCESS:          0  HIT:          0  MISS:          0

L2C TOTAL     ACCESS:    4361305  HIT:    3934530  MISS:     426775  HIT %:    90.2145  MISS %:    9.78549   MPKI: 8.5355
L2C LOAD      ACCESS:     798520  HIT:     659812  MISS:     138708  HIT %:    82.6294  MISS %:    17.3706   MPKI: 2.77416
L2C DATA LOAD MPKI: 2.21064
L2C INSTRUCTION LOAD MPKI: 0.56352
L2C RFO       ACCESS:     227554  HIT:     176913  MISS:      50641  HIT %:    77.7455  MISS %:    22.2545   MPKI: 1.01282
L2C PREFETCH  ACCESS:    2941294  HIT:    2724013  MISS:     217281  HIT %:    92.6127  MISS %:    7.38726   MPKI: 4.34562
L2C DATA PREFETCH MPKI: 0.00484
L2C INSTRUCTION PREFETCH MPKI: 4.34078
L2C WRITEBACK ACCESS:     386373  HIT:     368011  MISS:      18362  HIT %:    95.2476  MISS %:     4.7524   MPKI: 0.36724
L2C LOAD TRANSLATION ACCESS:       2109  HIT:        592  MISS:       1517  HIT %:    28.0702  MISS %:    71.9298   MPKI: 0.03034
L2C TRANSLATION FROM L1D PREFETCHER ACCESS:       5455  HIT:       5189  MISS:        266  HIT %:    95.1237  MISS %:    4.87626   MPKI: 0.00532
L2C PREFETCH  REQUESTED:      11772  ISSUED:      11772  USEFUL:       6847  USELESS:     209278
L2C USEFUL LOAD PREFETCHES:       6847 PREFETCH ISSUED TO LOWER LEVEL:     223738  ACCURACY: 3.06028
L2C TIMELY PREFETCHES:       6847 LATE PREFETCHES: 1432 DROPPED PREFETCHES: 0
L2C PREFETCHES SAME FILL-ORIGIN LEVEL: 1674 DIFFERENT FILL-ORIGIN LEVEL: 5024
L2C AVERAGE MISS LATENCY: 38.4775 cycles
L2C RQ	ACCESS:    1033697	FORWARD:          0	MERGED:          0	TO_CACHE:    1033638
L2C WQ	ACCESS:     386373	FORWARD:         59	MERGED:          0	TO_CACHE:     386373
L2C PQ	ACCESS:    2950674	FORWARD:          0	MERGED:       1811	TO_CACHE:    2948863

L2C Instructions Evicting Data 98259
L2C Translations Evicting Data 1114
L2C Data Evicting Data 75288
L2C Instructions Evicting Instructions 146255
L2C Translations Evicting Instructions 651
L2C Data Evicting Instructions 85068
L2C Instructions Evicting Translations 701
L2C Translations Evicting Translations 18
L2C Data Evicting Translations 1059
L2C Dense regions hint from L2: 0
PSCL5 TOTAL     ACCESS:       5164  HIT:       5164  MISS:          0  HIT %:        100  MISS %:          0   MPKI: 0
PSCL5 LOAD TRANSLATION ACCESS:       1883  HIT:       1883  MISS:          0  HIT %:        100  MISS %:          0   MPKI: 0
PSCL5 TRANSLATION FROM L1D PREFETCHER ACCESS:       3281  HIT:       3281  MISS:          0  HIT %:        100  MISS %:          0   MPKI: 0
PSCL5 PREFETCH  REQUESTED:          0  ISSUED:          0  USEFUL:          0  USELESS:          0
PSCL5 USEFUL LOAD PREFETCHES:          0 PREFETCH ISSUED TO LOWER LEVEL:          0  ACCURACY: -nan
PSCL5 TIMELY PREFETCHES:          0 LATE PREFETCHES: 0 DROPPED PREFETCHES: 0
PSCL5 PREFETCHES SAME FILL-ORIGIN LEVEL: 0 DIFFERENT FILL-ORIGIN LEVEL: 0

PSCL4 TOTAL     ACCESS:       4850  HIT:       4838  MISS:         12  HIT %:    99.7526  MISS %:   0.247423   MPKI: 0.00024
PSCL4 LOAD TRANSLATION ACCESS:       1665  HIT:       1653  MISS:         12  HIT %:    99.2793  MISS %:   0.720721   MPKI: 0.00024
PSCL4 TRANSLATION FROM L1D PREFETCHER ACCESS:       3185  HIT:       3185  MISS:          0  HIT %:        100  MISS %:          0   MPKI: 0
PSCL4 PREFETCH  REQUESTED:          0  ISSUED:          0  USEFUL:          0  USELESS:          0
PSCL4 USEFUL LOAD PREFETCHES:          0 PREFETCH ISSUED TO LOWER LEVEL:          0  ACCURACY: -nan
PSCL4 TIMELY PREFETCHES:          0 LATE PREFETCHES: 0 DROPPED PREFETCHES: 0
PSCL4 PREFETCHES SAME FILL-ORIGIN LEVEL: 0 DIFFERENT FILL-ORIGIN LEVEL: 0

PSCL3 TOTAL     ACCESS:       5024  HIT:       5012  MISS:         12  HIT %:    99.7611  MISS %:   0.238854   MPKI: 0.00024
PSCL3 LOAD TRANSLATION ACCESS:       1839  HIT:       1827  MISS:         12  HIT %:    99.3475  MISS %:   0.652529   MPKI: 0.00024
PSCL3 TRANSLATION FROM L1D PREFETCHER ACCESS:       3185  HIT:       3185  MISS:          0  HIT %:        100  MISS %:          0   MPKI: 0
PSCL3 PREFETCH  REQUESTED:          0  ISSUED:          0  USEFUL:          0  USELESS:          0
PSCL3 USEFUL LOAD PREFETCHES:          0 PREFETCH ISSUED TO LOWER LEVEL:          0  ACCURACY: -nan
PSCL3 TIMELY PREFETCHES:          0 LATE PREFETCHES: 0 DROPPED PREFETCHES: 0
PSCL3 PREFETCHES SAME FILL-ORIGIN LEVEL: 0 DIFFERENT FILL-ORIGIN LEVEL: 0

PSCL2 TOTAL     ACCESS:       3160  HIT:       2920  MISS:        240  HIT %:    92.4051  MISS %:    7.59494   MPKI: 0.0048
PSCL2 LOAD TRANSLATION ACCESS:       1915  HIT:       1675  MISS:        240  HIT %:    87.4674  MISS %:    12.5326   MPKI: 0.0048
PSCL2 TRANSLATION FROM L1D PREFETCHER ACCESS:       1245  HIT:       1245  MISS:          0  HIT %:        100  MISS %:          0   MPKI: 0
PSCL2 PREFETCH  REQUESTED:          0  ISSUED:          0  USEFUL:          0  USELESS:          0
PSCL2 USEFUL LOAD PREFETCHES:          0 PREFETCH ISSUED TO LOWER LEVEL:          0  ACCURACY: -nan
PSCL2 TIMELY PREFETCHES:          0 LATE PREFETCHES: 0 DROPPED PREFETCHES: 0
PSCL2 PREFETCHES SAME FILL-ORIGIN LEVEL: 0 DIFFERENT FILL-ORIGIN LEVEL: 0

LLC TOTAL     ACCESS:     486579  HIT:     459166  MISS:      27413  HIT %:    94.3662  MISS %:    5.63382   MPKI: 0.54826
LLC LOAD      ACCESS:     137276  HIT:     125960  MISS:      11316  HIT %:    91.7568  MISS %:    8.24325   MPKI: 0.22632
LLC RFO       ACCESS:      50641  HIT:      36236  MISS:      14405  HIT %:    71.5547  MISS %:    28.4453   MPKI: 0.2881
LLC PREFETCH  ACCESS:     223492  HIT:     222376  MISS:       1116  HIT %:    99.5007  MISS %:   0.499347   MPKI: 0.02232
LLC WRITEBACK ACCESS:      73387  HIT:      72974  MISS:        413  HIT %:    99.4372  MISS %:    0.56277   MPKI: 0.00826
LLC LOAD TRANSLATION ACCESS:       1517  HIT:       1375  MISS:        142  HIT %:    90.6394  MISS %:    9.36058   MPKI: 0.00284
LLC TRANSLATION FROM L1D PREFETCHER ACCESS:        266  HIT:        245  MISS:         21  HIT %:    92.1053  MISS %:    7.89474   MPKI: 0.00042
LLC PREFETCH  REQUESTED:          0  ISSUED:          0  USEFUL:        287  USELESS:       4216
LLC USEFUL LOAD PREFETCHES:        287 PREFETCH ISSUED TO LOWER LEVEL:       1151  ACCURACY: 24.9348
LLC TIMELY PREFETCHES:        287 LATE PREFETCHES: 35 DROPPED PREFETCHES: 0
LLC PREFETCHES SAME FILL-ORIGIN LEVEL: 118 DIFFERENT FILL-ORIGIN LEVEL: 0
LLC AVERAGE MISS LATENCY: 151.65 cycles
LLC RQ	ACCESS:     189700	FORWARD:          0	MERGED:          0	TO_CACHE:     189700
LLC WQ	ACCESS:      73387	FORWARD:          0	MERGED:          0	TO_CACHE:      73387
LLC PQ	ACCESS:     223738	FORWARD:          0	MERGED:        131	TO_CACHE:     223607

LLC Dense regions hint to LLC: 0

RAW hits: 799680
Loads Generated: 11132312
Loads sent to L1D: 10332630
Stores Generated: 5697707
Stores sent to L1D: 5697707
Major fault: 0 Minor fault: 2472
Allocated PAGES: 2472
I-Shadow cache 408 bytes
Touched + WorthPF tables 6144 bytes 
MMA filter 174 bytes 
FNL filter 272 bytes 
TOTAL PREFETCHER STORAGE SIZE: 25174 bytes
CPU 0 L1I next line prefetcher final stats
 All Calls: 6407641
 Critical Calls: 6407641
------------------
Depth Distribution
------------------
depth 0: 0
depth 1: 449228
depth 2: 13766
depth 3: 5903
depth 4: 3213
depth 5: 1157
depth 6: 249
depth 7: 22
depth 8: 0
depth 9: 0
depth 10: 0
depth 11: 0
depth 12: 0
depth 13: 0
depth 14: 0
depth 15: 0
depth 16: 0
depth 17: 0
depth 18: 0
depth 19: 0
depth 20: 0
depth 21: 0
depth 22: 0
depth 23: 0
depth 24: 0
depth 25: 0
depth 26: 0
depth 27: 0
depth 28: 0
depth 29: 0
Total: 473538
-----------------------------
-----------------------------
	Captured at Filter
-----------------------------
depth 0: 0
depth 1: 67234
depth 2: 1145
depth 3: 54
depth 4: 11
depth 5: 3
depth 6: 0
depth 7: 0
depth 8: 0
depth 9: 0
depth 10: 0
depth 11: 0
depth 12: 0
depth 13: 0
depth 14: 0
depth 15: 0
depth 16: 0
depth 17: 0
depth 18: 0
depth 19: 0
depth 20: 0
depth 21: 0
depth 22: 0
depth 23: 0
depth 24: 0
depth 25: 0
depth 26: 0
depth 27: 0
depth 28: 0
depth 29: 0
-----------------------------
-----------------------------
		Lost at Page
-----------------------------
depth 0: 0
depth 1: 191124
depth 2: 1933
depth 3: 512
depth 4: 258
depth 5: 95
depth 6: 32
depth 7: 2
depth 8: 0
depth 9: 0
depth 10: 0
depth 11: 0
depth 12: 0
depth 13: 0
depth 14: 0
depth 15: 0
depth 16: 0
depth 17: 0
depth 18: 0
depth 19: 0
depth 20: 0
depth 21: 0
depth 22: 0
depth 23: 0
depth 24: 0
depth 25: 0
depth 26: 0
depth 27: 0
depth 28: 0
depth 29: 0
-----------------------------
-----------------------------
	Lost due to PQ Size
-----------------------------
5906680
-----------------------------
ST read accesses: 3066049
ST write accesses: 470813
PT read accesses: 40321525
PT write accesses: 4116449
FILTER read accesses: 7511879
FILTER write accesses: 455513
GHR read accesses: 4665237
GHR write accesses: 133844
GHR counter read accesses: 35242984
GHR counter write accesses: 3637731
ST tag read accesses: 1601096826
ST tag write accesses: 173905248

DRAM Statistics
 CHANNEL 0
 RQ ROW_BUFFER_HIT:       9835  ROW_BUFFER_MISS:      17160
 DBUS_CONGESTED:          2
 WQ ROW_BUFFER_HIT:       1301  ROW_BUFFER_MISS:      11219  FULL:          0

 AVG_CONGESTED_CYCLE: 3
 All warmup complete: 2
Channel 0 Bank busy for read cycles: 0
Channel 0 Bank busy for write cycles: 0
Channel 0
Rank 0
0banks busy for read cycles: 75183328
0banks busy for write cycles: 3125
1banks busy for read cycles: 1383333
1banks busy for write cycles: 452976
2banks busy for read cycles: 158033
2banks busy for write cycles: 162107
3banks busy for read cycles: 61792
3banks busy for write cycles: 114934
4banks busy for read cycles: 32145
4banks busy for write cycles: 98410
5banks busy for read cycles: 24689
5banks busy for write cycles: 87303
6banks busy for read cycles: 27555
6banks busy for write cycles: 71150
7banks busy for read cycles: 32403
7banks busy for write cycles: 54987
8banks busy for read cycles: 68868
8banks busy for write cycles: 66675

CPU 0 Branch Prediction Accuracy: 99.7225% MPKI: 0.50376 Average ROB Occupancy at Mispredict: 60.3198
Branch types
NOT_BRANCH: 40923872 81.8477%
BRANCH_DIRECT_JUMP: 487044 0.974088%
BRANCH_INDIRECT: 169158 0.338316%
BRANCH_CONDITIONAL: 6640823 13.2816%
BRANCH_DIRECT_CALL: 755585 1.51117%
BRANCH_INDIRECT_CALL: 133962 0.267924%
BRANCH_RETURN: 889566 1.77913%
BRANCH_OTHER: 0 0%

DRAM PAGES: 1048576
Allocated PAGES: 2472
