
*** ChampSim Multicore Out-of-Order Simulator ***

Warmup Instructions: 50000000
Simulation Instructions: 50000000
Number of CPUs: 1
LLC sets: 2048
LLC ways: 16
Off-chip DRAM Size: 4096 MB Channels: 1 Width: 64-bit Data Rate: 6400 MT/s
CPU 0 runs ../IPC-traces//server_024.champsimtrace.xz
.xz
BTB has LRU replacement policy
ITLB has LRU replacement policy
DTLB has LRU replacement policy
STLB has LRU replacement policy
CPU 0 L1I next line prefetcher
L1I has LRU replacement policy
IP Table Entries: 64
L1D has LRU replacement policy
Initialize SRRIP state for L2C
Initialize DRRIP state for LLC
Heartbeat CPU 0 instructions: 10000000 cycles: 2874808 heartbeat IPC: 3.47849 cumulative IPC: 3.47849 (Simulation time: 0 hr 2 min 21 sec) 
Heartbeat CPU 0 instructions: 20000002 cycles: 5743687 heartbeat IPC: 3.48568 cumulative IPC: 3.48208 (Simulation time: 0 hr 4 min 40 sec) 
Heartbeat CPU 0 instructions: 30000002 cycles: 8614666 heartbeat IPC: 3.48313 cumulative IPC: 3.48243 (Simulation time: 0 hr 7 min 3 sec) 
Heartbeat CPU 0 instructions: 40000000 cycles: 11486033 heartbeat IPC: 3.48266 cumulative IPC: 3.48249 (Simulation time: 0 hr 9 min 22 sec) 
Heartbeat CPU 0 instructions: 50000001 cycles: 14354069 heartbeat IPC: 3.48671 cumulative IPC: 3.48333 (Simulation time: 0 hr 11 min 32 sec) 

Warmup complete CPU 0 instructions: 50000001 cycles: 14354069 (Simulation time: 0 hr 11 min 32 sec) 

Heartbeat CPU 0 instructions: 60000003 cycles: 30063621 heartbeat IPC: 0.636555 cumulative IPC: 0.636555 (Simulation time: 0 hr 14 min 5 sec) 
Heartbeat CPU 0 instructions: 70000000 cycles: 45795451 heartbeat IPC: 0.635654 cumulative IPC: 0.636104 (Simulation time: 0 hr 16 min 43 sec) 
*** Reached end of trace for Core: 0 Repeating trace: ../IPC-traces//server_024.champsimtrace.xz
Heartbeat CPU 0 instructions: 80000003 cycles: 61467794 heartbeat IPC: 0.638067 cumulative IPC: 0.636757 (Simulation time: 0 hr 19 min 20 sec) 
Heartbeat CPU 0 instructions: 90000003 cycles: 77187068 heartbeat IPC: 0.636162 cumulative IPC: 0.636608 (Simulation time: 0 hr 21 min 56 sec) 
Heartbeat CPU 0 instructions: 100000002 cycles: 92941916 heartbeat IPC: 0.634725 cumulative IPC: 0.636231 (Simulation time: 0 hr 24 min 52 sec) 
Finished CPU 0 instructions: 50000001 cycles: 78587847 cumulative IPC: 0.636231 (Simulation time: 0 hr 24 min 52 sec) 

ChampSim completed all CPUs

Region of Interest Statistics

CPU 0 cumulative IPC: 0.636231 instructions: 50000001 cycles: 78587847

CPU 0 Average Load ROB stall cycles: 1.96054e+07
CPU 0 Fraction of times ROB stalled by Loads: 36.5397
CPU 0 Percentage of Load stall cycles in Total stall cycles: 2.7811e+08
Issued all: 27883569
Issued LT all: 22049214
rob_not_full_when_issued_lt_all: 21528458
Issued LT one: 17062770
rob_not_full_when_issued_lt_one: 16607101
FVP critical_dynamic_instances_0: 2156365
FVP unique_critical_ips_0: 5850
 Total stall cycles: 65371551
 Total load stall cycles: 181804975617128
Unique Load IPs: 13758
CPU 0 NUM of IPS identified critical: 0
CPU 0 Num of Load IPs stalling ROB: 0
Threshold modification factor: 0
Trouble in retire width: -nan
MaC = Marked as critical.
lt_50_percent_before_Mac: 0
gt_90_percent_before_Mac: 0
gt_75_percent_before_Mac: 0
gt_50_percent_before_Mac: 0
stall_proportion_bin_same_before_after: 0
stall_proportion_bin_lower_before_after: 0
stall_proportion_bin_upper_before_after: 0
average_stall_proportion_before: -nan
average_stall_proportion_after: -nan
Critical IP stalls, total frequency: 0
Non-critical IP stalls, total frequency: 0
Total Freq all stalling IPs: 0
Critical_IP_Detector_Accuracy_70: 0.00017094
Critical_IP_Detector_Accuracy_80: 0.00017094
Critical_IP_Detector_Accuracy_90: 0.00017094
Critical_IP_Detector_Coverage_70: 1
Critical_IP_Detector_Coverage_80: 1
Critical_IP_Detector_Coverage_90: 1
stat_90_percent_critical_ip_stalls_freq: 102087
stat_90_percent_non_critical_ip_stalls_freq: 18446744073709449529
AVERAGE_ROB_Occupancy_90_Percent_Critical_IP_Stalls: 100.138
AVERAGE_ROB_Occupancy_90_Percent_Non_Critical_IP_Stalls: 8.14329e-12
Critical_IP_ROB_Stalls_Bucket_0: 0
Non-critical_IP_ROB_Stalls_Bucket_0: 2316387
Critical_IP_ROB_Stalls_Bucket_1: 0
Non-critical_IP_ROB_Stalls_Bucket_1: 716423
Critical_IP_ROB_Stalls_Bucket_2: 0
Non-critical_IP_ROB_Stalls_Bucket_2: 243210
Critical_IP_ROB_Stalls_Bucket_3: 0
Non-critical_IP_ROB_Stalls_Bucket_3: 57319
Critical_IP_ROB_Stalls_Bucket_4: 0
Non-critical_IP_ROB_Stalls_Bucket_4: 20774
Critical_IP_ROB_Stalls_Bucket_5: 0
Non-critical_IP_ROB_Stalls_Bucket_5: 10377
Critical_IP_ROB_Stalls_Bucket_6: 0
Non-critical_IP_ROB_Stalls_Bucket_6: 23914
0 => IPs accounting for >50 percent of stalls, 1 => 55, 2 => 60, 3 => 65 and so on till 90.
percent50: inf num IPs:  1
percent55: inf num IPs: 1
percent60: inf num IPs: 1
percent65: inf num IPs: 1
percent70: inf num IPs: 1
percent75: inf num IPs: 1
percent80: inf num IPs: 1
percent85: inf num IPs: 1
percent90: inf num IPs: 1
Critical_ROB_Stalls_Percent_0_Bucket_0: 2731
Non-critical_ROB_Stalls_Percent_0_Bucket_0: 2313656
Critical_ROB_Stalls_Percent_0_Bucket_1: 67986
Non-critical_ROB_Stalls_Percent_0_Bucket_1: 648437
Critical_ROB_Stalls_Percent_0_Bucket_2: 27910
Non-critical_ROB_Stalls_Percent_0_Bucket_2: 215300
Critical_ROB_Stalls_Percent_0_Bucket_3: 3458
Non-critical_ROB_Stalls_Percent_0_Bucket_3: 53861
Critical_ROB_Stalls_Percent_0_Bucket_4: 2
Non-critical_ROB_Stalls_Percent_0_Bucket_4: 20772
Critical_ROB_Stalls_Percent_0_Bucket_5: 0
Non-critical_ROB_Stalls_Percent_0_Bucket_5: 10377
Critical_ROB_Stalls_Percent_0_Bucket_6: 0
Non-critical_ROB_Stalls_Percent_0_Bucket_6: 23914
Critical_ROB_Stalls_Percent_1_Bucket_0: 2731
Non-critical_ROB_Stalls_Percent_1_Bucket_0: 2313656
Critical_ROB_Stalls_Percent_1_Bucket_1: 67986
Non-critical_ROB_Stalls_Percent_1_Bucket_1: 648437
Critical_ROB_Stalls_Percent_1_Bucket_2: 27910
Non-critical_ROB_Stalls_Percent_1_Bucket_2: 215300
Critical_ROB_Stalls_Percent_1_Bucket_3: 3458
Non-critical_ROB_Stalls_Percent_1_Bucket_3: 53861
Critical_ROB_Stalls_Percent_1_Bucket_4: 2
Non-critical_ROB_Stalls_Percent_1_Bucket_4: 20772
Critical_ROB_Stalls_Percent_1_Bucket_5: 0
Non-critical_ROB_Stalls_Percent_1_Bucket_5: 10377
Critical_ROB_Stalls_Percent_1_Bucket_6: 0
Non-critical_ROB_Stalls_Percent_1_Bucket_6: 23914
Critical_ROB_Stalls_Percent_2_Bucket_0: 2731
Non-critical_ROB_Stalls_Percent_2_Bucket_0: 2313656
Critical_ROB_Stalls_Percent_2_Bucket_1: 67986
Non-critical_ROB_Stalls_Percent_2_Bucket_1: 648437
Critical_ROB_Stalls_Percent_2_Bucket_2: 27910
Non-critical_ROB_Stalls_Percent_2_Bucket_2: 215300
Critical_ROB_Stalls_Percent_2_Bucket_3: 3458
Non-critical_ROB_Stalls_Percent_2_Bucket_3: 53861
Critical_ROB_Stalls_Percent_2_Bucket_4: 2
Non-critical_ROB_Stalls_Percent_2_Bucket_4: 20772
Critical_ROB_Stalls_Percent_2_Bucket_5: 0
Non-critical_ROB_Stalls_Percent_2_Bucket_5: 10377
Critical_ROB_Stalls_Percent_2_Bucket_6: 0
Non-critical_ROB_Stalls_Percent_2_Bucket_6: 23914
Critical_ROB_Stalls_Percent_3_Bucket_0: 2731
Non-critical_ROB_Stalls_Percent_3_Bucket_0: 2313656
Critical_ROB_Stalls_Percent_3_Bucket_1: 67986
Non-critical_ROB_Stalls_Percent_3_Bucket_1: 648437
Critical_ROB_Stalls_Percent_3_Bucket_2: 27910
Non-critical_ROB_Stalls_Percent_3_Bucket_2: 215300
Critical_ROB_Stalls_Percent_3_Bucket_3: 3458
Non-critical_ROB_Stalls_Percent_3_Bucket_3: 53861
Critical_ROB_Stalls_Percent_3_Bucket_4: 2
Non-critical_ROB_Stalls_Percent_3_Bucket_4: 20772
Critical_ROB_Stalls_Percent_3_Bucket_5: 0
Non-critical_ROB_Stalls_Percent_3_Bucket_5: 10377
Critical_ROB_Stalls_Percent_3_Bucket_6: 0
Non-critical_ROB_Stalls_Percent_3_Bucket_6: 23914
Critical_ROB_Stalls_Percent_4_Bucket_0: 2731
Non-critical_ROB_Stalls_Percent_4_Bucket_0: 2313656
Critical_ROB_Stalls_Percent_4_Bucket_1: 67986
Non-critical_ROB_Stalls_Percent_4_Bucket_1: 648437
Critical_ROB_Stalls_Percent_4_Bucket_2: 27910
Non-critical_ROB_Stalls_Percent_4_Bucket_2: 215300
Critical_ROB_Stalls_Percent_4_Bucket_3: 3458
Non-critical_ROB_Stalls_Percent_4_Bucket_3: 53861
Critical_ROB_Stalls_Percent_4_Bucket_4: 2
Non-critical_ROB_Stalls_Percent_4_Bucket_4: 20772
Critical_ROB_Stalls_Percent_4_Bucket_5: 0
Non-critical_ROB_Stalls_Percent_4_Bucket_5: 10377
Critical_ROB_Stalls_Percent_4_Bucket_6: 0
Non-critical_ROB_Stalls_Percent_4_Bucket_6: 23914
Critical_ROB_Stalls_Percent_5_Bucket_0: 2731
Non-critical_ROB_Stalls_Percent_5_Bucket_0: 2313656
Critical_ROB_Stalls_Percent_5_Bucket_1: 67986
Non-critical_ROB_Stalls_Percent_5_Bucket_1: 648437
Critical_ROB_Stalls_Percent_5_Bucket_2: 27910
Non-critical_ROB_Stalls_Percent_5_Bucket_2: 215300
Critical_ROB_Stalls_Percent_5_Bucket_3: 3458
Non-critical_ROB_Stalls_Percent_5_Bucket_3: 53861
Critical_ROB_Stalls_Percent_5_Bucket_4: 2
Non-critical_ROB_Stalls_Percent_5_Bucket_4: 20772
Critical_ROB_Stalls_Percent_5_Bucket_5: 0
Non-critical_ROB_Stalls_Percent_5_Bucket_5: 10377
Critical_ROB_Stalls_Percent_5_Bucket_6: 0
Non-critical_ROB_Stalls_Percent_5_Bucket_6: 23914
Critical_ROB_Stalls_Percent_6_Bucket_0: 2731
Non-critical_ROB_Stalls_Percent_6_Bucket_0: 2313656
Critical_ROB_Stalls_Percent_6_Bucket_1: 67986
Non-critical_ROB_Stalls_Percent_6_Bucket_1: 648437
Critical_ROB_Stalls_Percent_6_Bucket_2: 27910
Non-critical_ROB_Stalls_Percent_6_Bucket_2: 215300
Critical_ROB_Stalls_Percent_6_Bucket_3: 3458
Non-critical_ROB_Stalls_Percent_6_Bucket_3: 53861
Critical_ROB_Stalls_Percent_6_Bucket_4: 2
Non-critical_ROB_Stalls_Percent_6_Bucket_4: 20772
Critical_ROB_Stalls_Percent_6_Bucket_5: 0
Non-critical_ROB_Stalls_Percent_6_Bucket_5: 10377
Critical_ROB_Stalls_Percent_6_Bucket_6: 0
Non-critical_ROB_Stalls_Percent_6_Bucket_6: 23914
Critical_ROB_Stalls_Percent_7_Bucket_0: 2731
Non-critical_ROB_Stalls_Percent_7_Bucket_0: 2313656
Critical_ROB_Stalls_Percent_7_Bucket_1: 67986
Non-critical_ROB_Stalls_Percent_7_Bucket_1: 648437
Critical_ROB_Stalls_Percent_7_Bucket_2: 27910
Non-critical_ROB_Stalls_Percent_7_Bucket_2: 215300
Critical_ROB_Stalls_Percent_7_Bucket_3: 3458
Non-critical_ROB_Stalls_Percent_7_Bucket_3: 53861
Critical_ROB_Stalls_Percent_7_Bucket_4: 2
Non-critical_ROB_Stalls_Percent_7_Bucket_4: 20772
Critical_ROB_Stalls_Percent_7_Bucket_5: 0
Non-critical_ROB_Stalls_Percent_7_Bucket_5: 10377
Critical_ROB_Stalls_Percent_7_Bucket_6: 0
Non-critical_ROB_Stalls_Percent_7_Bucket_6: 23914
Critical_ROB_Stalls_Percent_8_Bucket_0: 2731
Non-critical_ROB_Stalls_Percent_8_Bucket_0: 2313656
Critical_ROB_Stalls_Percent_8_Bucket_1: 67986
Non-critical_ROB_Stalls_Percent_8_Bucket_1: 648437
Critical_ROB_Stalls_Percent_8_Bucket_2: 27910
Non-critical_ROB_Stalls_Percent_8_Bucket_2: 215300
Critical_ROB_Stalls_Percent_8_Bucket_3: 3458
Non-critical_ROB_Stalls_Percent_8_Bucket_3: 53861
Critical_ROB_Stalls_Percent_8_Bucket_4: 2
Non-critical_ROB_Stalls_Percent_8_Bucket_4: 20772
Critical_ROB_Stalls_Percent_8_Bucket_5: 0
Non-critical_ROB_Stalls_Percent_8_Bucket_5: 10377
Critical_ROB_Stalls_Percent_8_Bucket_6: 0
Non-critical_ROB_Stalls_Percent_8_Bucket_6: 23914
Average ROB occupancy Load Stall Begin: 39.0826
Average ROB occupancy Load Stall End: 47.3497
Min ROB occupancy Load Stall Begin: 1
Max ROB occupancy Load Stall Begin: 352
Min ROB occupancy Load Stall End: 1
Max ROB occupancy Load Stall End: 352
Average ROB occupancy Critical Load Stall Begin: -nan
Average ROB occupancy Critical Load Stall End: -nan
Min ROB occupancy Critical Load Stall Begin: 400
Max ROB occupancy Critical Load Stall Begin: 0
Min ROB occupancy Critical Load Stall End: 400
Max ROB occupancy Critical Load Stall End: 0
 ROB Load Stall Begin Bucket Count 0: 2554529
 ROB Load Stall End Bucket Count 0: 2316387
 ROB Critical Load Stall Begin Bucket Count 0: 0
 ROB Critical Load Stall End Bucket Count 0: 0
 ROB Load Stall Begin Bucket Count 1: 564729
 ROB Load Stall End Bucket Count 1: 716423
 ROB Critical Load Stall Begin Bucket Count 1: 0
 ROB Critical Load Stall End Bucket Count 1: 0
 ROB Load Stall Begin Bucket Count 2: 178674
 ROB Load Stall End Bucket Count 2: 243210
 ROB Critical Load Stall Begin Bucket Count 2: 0
 ROB Critical Load Stall End Bucket Count 2: 0
 ROB Load Stall Begin Bucket Count 3: 41426
 ROB Load Stall End Bucket Count 3: 57319
 ROB Critical Load Stall Begin Bucket Count 3: 0
 ROB Critical Load Stall End Bucket Count 3: 0
 ROB Load Stall Begin Bucket Count 4: 16876
 ROB Load Stall End Bucket Count 4: 20774
 ROB Critical Load Stall Begin Bucket Count 4: 0
 ROB Critical Load Stall End Bucket Count 4: 0
 ROB Load Stall Begin Bucket Count 5: 9359
 ROB Load Stall End Bucket Count 5: 10377
 ROB Critical Load Stall Begin Bucket Count 5: 0
 ROB Critical Load Stall End Bucket Count 5: 0
 ROB Load Stall Begin Bucket Count 6: 22811
 ROB Load Stall End Bucket Count 6: 23914
 ROB Critical Load Stall Begin Bucket Count 6: 0
 ROB Critical Load Stall End Bucket Count 6: 0
PIST Tag Read Accesses: 0
PIST Read Accesses: 0
PIST Tag Write Accesses: 0
PIST Write Accesses: 0
Criticality detector called times: 0
Max global_stall_cycles_count: 0
Threshold Modified: 0 times, factor: 0
ITLB TOTAL     ACCESS:    9896351  HIT:    9270718  MISS:     625633  HIT %:    93.6781  MISS %:    6.32186   MPKI: 12.5127
ITLB LOAD TRANSLATION ACCESS:    8071961  HIT:    7981971  MISS:      89990  HIT %:    98.8852  MISS %:    1.11485   MPKI: 1.7998
ITLB TRANSLATION FROM L1D PREFETCHER ACCESS:    1824390  HIT:    1288747  MISS:     535643  HIT %:    70.6399  MISS %:    29.3601   MPKI: 10.7129
ITLB PREFETCH  REQUESTED:          0  ISSUED:          0  USEFUL:     413505  USELESS:     122146
ITLB USEFUL LOAD PREFETCHES:     413505 PREFETCH ISSUED TO LOWER LEVEL:          0  ACCURACY: inf
ITLB TIMELY PREFETCHES:     413505 LATE PREFETCHES: 218 DROPPED PREFETCHES: 3110
ITLB PREFETCHES SAME FILL-ORIGIN LEVEL: 0 DIFFERENT FILL-ORIGIN LEVEL: 0
ITLB AVERAGE MISS LATENCY: 17841 cycles
ITLB RQ	ACCESS:   14543797	FORWARD:          0	MERGED:    4605971	TO_CACHE:    9937826

DTLB TOTAL     ACCESS:   11324138  HIT:   10859937  MISS:     464201  HIT %:    95.9008  MISS %:    4.09922   MPKI: 9.28402
DTLB LOAD TRANSLATION ACCESS:   11324138  HIT:   10859937  MISS:     464201  HIT %:    95.9008  MISS %:    4.09922   MPKI: 9.28402
DTLB PREFETCH  REQUESTED:          0  ISSUED:          0  USEFUL:          0  USELESS:          0
DTLB USEFUL LOAD PREFETCHES:          0 PREFETCH ISSUED TO LOWER LEVEL:          0  ACCURACY: -nan
DTLB TIMELY PREFETCHES:          0 LATE PREFETCHES: 0 DROPPED PREFETCHES: 0
DTLB PREFETCHES SAME FILL-ORIGIN LEVEL: 0 DIFFERENT FILL-ORIGIN LEVEL: 0
DTLB AVERAGE MISS LATENCY: 9.39474 cycles
DTLB RQ	ACCESS:   14771852	FORWARD:          0	MERGED:    3421130	TO_CACHE:   11350722

STLB TOTAL     ACCESS:    1412791  HIT:    1409780  MISS:       3011  HIT %:    99.7869  MISS %:   0.213124   MPKI: 0.06022
STLB LOAD TRANSLATION ACCESS:     553973  HIT:     551207  MISS:       2766  HIT %:    99.5007  MISS %:   0.499302   MPKI: 0.05532
STLB TRANSLATION FROM L1D PREFETCHER ACCESS:     858818  HIT:     858573  MISS:        245  HIT %:    99.9715  MISS %:  0.0285276   MPKI: 0.0049
STLB PREFETCH  REQUESTED:          0  ISSUED:          0  USEFUL:        188  USELESS:         55
STLB USEFUL LOAD PREFETCHES:        188 PREFETCH ISSUED TO LOWER LEVEL:          0  ACCURACY: inf
STLB TIMELY PREFETCHES:        188 LATE PREFETCHES: 0 DROPPED PREFETCHES: 3110
STLB PREFETCHES SAME FILL-ORIGIN LEVEL: 0 DIFFERENT FILL-ORIGIN LEVEL: 0
STLB AVERAGE MISS LATENCY: 66.0518 cycles
STLB RQ	ACCESS:    1527319	FORWARD:          0	MERGED:     111418	TO_CACHE:    1415901

STLB Hit, L1D data hit: 0
STLB Hit, L2C data hit: 0
STLB Hit, LLC data hit: 0
STLB Hit, LLC data miss: 0
STLB STLB hints to L2: 0
L1D TOTAL     ACCESS:   14643137  HIT:   13568209  MISS:    1074928  HIT %:    92.6592  MISS %:    7.34083   MPKI: 21.4986
L1D LOAD      ACCESS:    8030867  HIT:    7343657  MISS:     687210  HIT %:    91.4429  MISS %:    8.55711   MPKI: 13.7442
L1D RFO       ACCESS:    6235776  HIT:    5951560  MISS:     284216  HIT %:    95.4422  MISS %:    4.55783   MPKI: 5.68432
L1D PREFETCH  ACCESS:     376494  HIT:     272992  MISS:     103502  HIT %:     72.509  MISS %:     27.491   MPKI: 2.07004
L1D PREFETCH  REQUESTED:     868905  ISSUED:     868899  USEFUL:      42154  USELESS:      61305
L1D USEFUL LOAD PREFETCHES:      42154 PREFETCH ISSUED TO LOWER LEVEL:     148480  ACCURACY: 28.3904
L1D TIMELY PREFETCHES:      42154 LATE PREFETCHES: 44888 DROPPED PREFETCHES: 0
L1D PREFETCHES SAME FILL-ORIGIN LEVEL: 148480 DIFFERENT FILL-ORIGIN LEVEL: 0
L1D AVERAGE MISS LATENCY: 2.29488e+06 cycles
L1D RQ	ACCESS:   11542250	FORWARD:          0	MERGED:    3346563	TO_CACHE:    8067930
L1D WQ	ACCESS:    6771059	FORWARD:     127906	MERGED:      67137	TO_CACHE:    6703922
L1D PQ	ACCESS:     434524	FORWARD:          0	MERGED:          0	TO_CACHE:     434375

L1D UNIQUE REGIONS ACCESSED: 0
L1D REGIONS CONFLICTS: 0
L1D Cross Page Prefetch Requests: 0
L1D Same Page Prefetch Requests: 443049
L1D ROI Sum of L1D PQ occupancy: 5660134
L1D PREFETCHES PUSHED FROM L2C: 0
L1I TOTAL     ACCESS:   14400264  HIT:   10622250  MISS:    3778014  HIT %:    73.7643  MISS %:    26.2357   MPKI: 75.5603
L1I LOAD      ACCESS:    9397971  HIT:    9125650  MISS:     272321  HIT %:    97.1023  MISS %:    2.89766   MPKI: 5.44642
L1I PREFETCH  ACCESS:    5002293  HIT:    1496600  MISS:    3505693  HIT %:    29.9183  MISS %:    70.0817   MPKI: 70.1139
L1I PREFETCH  REQUESTED:    5255171  ISSUED:    5240029  USEFUL:    2350998  USELESS:    1154705
L1I USEFUL LOAD PREFETCHES:    2350998 PREFETCH ISSUED TO LOWER LEVEL:    3535317  ACCURACY: 66.5003
L1I TIMELY PREFETCHES:    2350998 LATE PREFETCHES: 29619 DROPPED PREFETCHES: 7877
L1I PREFETCHES SAME FILL-ORIGIN LEVEL: 3535317 DIFFERENT FILL-ORIGIN LEVEL: 0
L1I AVERAGE MISS LATENCY: 415689 cycles
L1I RQ	ACCESS:   13471380	FORWARD:          0	MERGED:    4049573	TO_CACHE:    9421807
L1I PQ	ACCESS:    5240029	FORWARD:          0	MERGED:     118039	TO_CACHE:    5121990

BTB TOTAL     ACCESS:    6210937  HIT:    4468588  MISS:    1742349  HIT %:    71.9471  MISS %:    28.0529   MPKI: 34.847
BTB BRANCH_DIRECT_JUMP	ACCESS:     566815  HIT:     417590  MISS:     149225
BTB BRANCH_INDIRECT	ACCESS:     197171  HIT:     163808  MISS:      33363
BTB BRANCH_CONDITIONAL	ACCESS:    3373175  HIT:    2911629  MISS:     461546
BTB BRANCH_DIRECT_CALL	ACCESS:     876400  HIT:     531836  MISS:     344564
BTB BRANCH_INDIRECT_CALL	ACCESS:     160491  HIT:      90228  MISS:      70263
BTB BRANCH_RETURN	ACCESS:    1036885  HIT:     353497  MISS:     683388
BTB BRANCH_OTHER ACCESS:          0  HIT:          0  MISS:          0

L2C TOTAL     ACCESS:    5341316  HIT:    4732957  MISS:     608359  HIT %:    88.6103  MISS %:    11.3897   MPKI: 12.1672
L2C LOAD      ACCESS:     884998  HIT:     723708  MISS:     161290  HIT %:    81.7751  MISS %:    18.2249   MPKI: 3.2258
L2C DATA LOAD MPKI: 2.53314
L2C INSTRUCTION LOAD MPKI: 0.69266
L2C RFO       ACCESS:     284121  HIT:     205083  MISS:      79038  HIT %:    72.1816  MISS %:    27.8184   MPKI: 1.58076
L2C PREFETCH  ACCESS:    3683782  HIT:    3345077  MISS:     338705  HIT %:    90.8055  MISS %:    9.19449   MPKI: 6.7741
L2C DATA PREFETCH MPKI: 1.11566
L2C INSTRUCTION PREFETCH MPKI: 5.65844
L2C WRITEBACK ACCESS:     479739  HIT:     452671  MISS:      27068  HIT %:    94.3578  MISS %:    5.64223   MPKI: 0.54136
L2C LOAD TRANSLATION ACCESS:       3039  HIT:        981  MISS:       2058  HIT %:    32.2804  MISS %:    67.7196   MPKI: 0.04116
L2C TRANSLATION FROM L1D PREFETCHER ACCESS:       5637  HIT:       5437  MISS:        200  HIT %:     96.452  MISS %:    3.54799   MPKI: 0.004
L2C PREFETCH  REQUESTED:          0  ISSUED:          0  USEFUL:      10115  USELESS:     328306
L2C USEFUL LOAD PREFETCHES:      10115 PREFETCH ISSUED TO LOWER LEVEL:     338707  ACCURACY: 2.98636
L2C TIMELY PREFETCHES:      10115 LATE PREFETCHES: 0 DROPPED PREFETCHES: 0
L2C PREFETCHES SAME FILL-ORIGIN LEVEL: 0 DIFFERENT FILL-ORIGIN LEVEL: 0
L2C AVERAGE MISS LATENCY: 41.5427 cycles
L2C RQ	ACCESS:    1177826	FORWARD:          0	MERGED:          0	TO_CACHE:    1177795
L2C WQ	ACCESS:     479739	FORWARD:         41	MERGED:          0	TO_CACHE:     479739
L2C PQ	ACCESS:    3683797	FORWARD:          0	MERGED:          0	TO_CACHE:    3683787

L2C Instructions Evicting Data 141110
L2C Translations Evicting Data 1348
L2C Data Evicting Data 134552
L2C Instructions Evicting Instructions 175559
L2C Translations Evicting Instructions 890
L2C Data Evicting Instructions 125586
L2C Instructions Evicting Translations 886
L2C Translations Evicting Translations 20
L2C Data Evicting Translations 1340
L2C Dense regions hint from L2: 0
PSCL5 TOTAL     ACCESS:       6121  HIT:       6121  MISS:          0  HIT %:        100  MISS %:          0   MPKI: 0
PSCL5 LOAD TRANSLATION ACCESS:       2766  HIT:       2766  MISS:          0  HIT %:        100  MISS %:          0   MPKI: 0
PSCL5 TRANSLATION FROM L1D PREFETCHER ACCESS:       3355  HIT:       3355  MISS:          0  HIT %:        100  MISS %:          0   MPKI: 0
PSCL5 PREFETCH  REQUESTED:          0  ISSUED:          0  USEFUL:          0  USELESS:          0
PSCL5 USEFUL LOAD PREFETCHES:          0 PREFETCH ISSUED TO LOWER LEVEL:          0  ACCURACY: -nan
PSCL5 TIMELY PREFETCHES:          0 LATE PREFETCHES: 0 DROPPED PREFETCHES: 0
PSCL5 PREFETCHES SAME FILL-ORIGIN LEVEL: 0 DIFFERENT FILL-ORIGIN LEVEL: 0

PSCL4 TOTAL     ACCESS:       6025  HIT:       6019  MISS:          6  HIT %:    99.9004  MISS %:  0.0995851   MPKI: 0.00012
PSCL4 LOAD TRANSLATION ACCESS:       2673  HIT:       2667  MISS:          6  HIT %:    99.7755  MISS %:   0.224467   MPKI: 0.00012
PSCL4 TRANSLATION FROM L1D PREFETCHER ACCESS:       3352  HIT:       3352  MISS:          0  HIT %:        100  MISS %:          0   MPKI: 0
PSCL4 PREFETCH  REQUESTED:          0  ISSUED:          0  USEFUL:          0  USELESS:          0
PSCL4 USEFUL LOAD PREFETCHES:          0 PREFETCH ISSUED TO LOWER LEVEL:          0  ACCURACY: -nan
PSCL4 TIMELY PREFETCHES:          0 LATE PREFETCHES: 0 DROPPED PREFETCHES: 0
PSCL4 PREFETCHES SAME FILL-ORIGIN LEVEL: 0 DIFFERENT FILL-ORIGIN LEVEL: 0

PSCL3 TOTAL     ACCESS:       6117  HIT:       6111  MISS:          6  HIT %:    99.9019  MISS %:  0.0980873   MPKI: 0.00012
PSCL3 LOAD TRANSLATION ACCESS:       2765  HIT:       2759  MISS:          6  HIT %:     99.783  MISS %:   0.216998   MPKI: 0.00012
PSCL3 TRANSLATION FROM L1D PREFETCHER ACCESS:       3352  HIT:       3352  MISS:          0  HIT %:        100  MISS %:          0   MPKI: 0
PSCL3 PREFETCH  REQUESTED:          0  ISSUED:          0  USEFUL:          0  USELESS:          0
PSCL3 USEFUL LOAD PREFETCHES:          0 PREFETCH ISSUED TO LOWER LEVEL:          0  ACCURACY: -nan
PSCL3 TIMELY PREFETCHES:          0 LATE PREFETCHES: 0 DROPPED PREFETCHES: 0
PSCL3 PREFETCHES SAME FILL-ORIGIN LEVEL: 0 DIFFERENT FILL-ORIGIN LEVEL: 0

PSCL2 TOTAL     ACCESS:       3876  HIT:       3581  MISS:        295  HIT %:    92.3891  MISS %:    7.61094   MPKI: 0.0059
PSCL2 LOAD TRANSLATION ACCESS:       2797  HIT:       2502  MISS:        295  HIT %:     89.453  MISS %:     10.547   MPKI: 0.0059
PSCL2 TRANSLATION FROM L1D PREFETCHER ACCESS:       1079  HIT:       1079  MISS:          0  HIT %:        100  MISS %:          0   MPKI: 0
PSCL2 PREFETCH  REQUESTED:          0  ISSUED:          0  USEFUL:          0  USELESS:          0
PSCL2 USEFUL LOAD PREFETCHES:          0 PREFETCH ISSUED TO LOWER LEVEL:          0  ACCURACY: -nan
PSCL2 TIMELY PREFETCHES:          0 LATE PREFETCHES: 0 DROPPED PREFETCHES: 0
PSCL2 PREFETCHES SAME FILL-ORIGIN LEVEL: 0 DIFFERENT FILL-ORIGIN LEVEL: 0

LLC TOTAL     ACCESS:     693275  HIT:     648029  MISS:      45246  HIT %:    93.4736  MISS %:    6.52641   MPKI: 0.90492
LLC LOAD      ACCESS:     161289  HIT:     152413  MISS:       8876  HIT %:    94.4968  MISS %:    5.50317   MPKI: 0.17752
LLC RFO       ACCESS:      79038  HIT:      56816  MISS:      22222  HIT %:    71.8844  MISS %:    28.1156   MPKI: 0.44444
LLC PREFETCH  ACCESS:     338705  HIT:     325219  MISS:      13486  HIT %:    96.0184  MISS %:    3.98164   MPKI: 0.26972
LLC WRITEBACK ACCESS:     111985  HIT:     111528  MISS:        457  HIT %:    99.5919  MISS %:    0.40809   MPKI: 0.00914
LLC LOAD TRANSLATION ACCESS:       2058  HIT:       1873  MISS:        185  HIT %:    91.0107  MISS %:    8.98931   MPKI: 0.0037
LLC TRANSLATION FROM L1D PREFETCHER ACCESS:        200  HIT:        180  MISS:         20  HIT %:         90  MISS %:         10   MPKI: 0.0004
LLC PREFETCH  REQUESTED:          0  ISSUED:          0  USEFUL:        576  USELESS:       8068
LLC USEFUL LOAD PREFETCHES:        576 PREFETCH ISSUED TO LOWER LEVEL:      13486  ACCURACY: 4.2711
LLC TIMELY PREFETCHES:        576 LATE PREFETCHES: 0 DROPPED PREFETCHES: 0
LLC PREFETCHES SAME FILL-ORIGIN LEVEL: 0 DIFFERENT FILL-ORIGIN LEVEL: 0
LLC AVERAGE MISS LATENCY: 172.47 cycles
LLC RQ	ACCESS:     242586	FORWARD:          0	MERGED:          0	TO_CACHE:     242585
LLC WQ	ACCESS:     111985	FORWARD:          1	MERGED:          0	TO_CACHE:     111985
LLC PQ	ACCESS:     338707	FORWARD:          0	MERGED:          0	TO_CACHE:     338707

LLC Dense regions hint to LLC: 0

RAW hits: 927821
Loads Generated: 12470071
Loads sent to L1D: 11542250
Stores Generated: 6771037
Stores sent to L1D: 6771059
Major fault: 0 Minor fault: 2466
Allocated PAGES: 2466
I-Shadow cache 408 bytes
Touched + WorthPF tables 6144 bytes 
MMA filter 174 bytes 
FNL filter 272 bytes 
TOTAL PREFETCHER STORAGE SIZE: 25174 bytes
CPU 0 L1I next line prefetcher final stats

stream: 
stream:times selected: 664926
stream:pref_filled: 52809
stream:pref_useful: 8558
stream:pref_late: 36206
stream:misses: 5586
stream:misses_by_poll: 0

CS: 
CS:times selected: 83201
CS:pref_filled: 41334
CS:pref_useful: 30900
CS:pref_late: 4890
CS:misses: 9183
CS:misses_by_poll: 41

CPLX: 
CPLX:times selected: 580619
CPLX:pref_filled: 12568
CPLX:pref_useful: 3854
CPLX:pref_late: 3535
CPLX:misses: 66133
CPLX:misses_by_poll: 77

NL_L1: 
NL:times selected: 5675
NL:pref_filled: 227
NL:pref_useful: 50
NL:pref_late: 3
NL:misses: 230
NL:misses_by_poll: 0

total selections: 1334421
total_filled: 103502
total_useful: 42154
total_late: 45722
total_polluted: 118
total_misses_after_warmup: 140394
conflicts: 173232
Degree Incremented Times: 1326
Degree Decremented Times: 15995

L1 IP Table Write Accesses: 1225665
L1 IP Table Read Accesses: 1052433
L1 RST Write Accesses: 659191
L1 RST Read Accesses: 1318382
L1 CSPT Write Accesses: 659191
L1 CSPT Read Accesses: 1234668
L1 RR Filter Tag Write Accesses: 434530
L1 RR Filter Tag Read Accesses: 28504794
L1 IP Table Tag Write Accesses: 1451138
L1 IP Table Tag Read Accesses: 1451138
L1 RST Tag Write Accesses: 0
L1 RST Tag Read Accesses: 5304248
L1 RR Filter Write Accesses: 0
L1 RR Filter Read Accesses: 1041576
test: 80275

DRAM Statistics
 CHANNEL 0
 RQ ROW_BUFFER_HIT:      15255  ROW_BUFFER_MISS:      29528
 DBUS_CONGESTED:          7
 WQ ROW_BUFFER_HIT:       2518  ROW_BUFFER_MISS:      23354  FULL:          0

 AVG_CONGESTED_CYCLE: 5
 All warmup complete: 2
Channel 0 Bank busy for read cycles: 0
Channel 0 Bank busy for write cycles: 0
Channel 0
Rank 0
0banks busy for read cycles: 74419813
0banks busy for write cycles: 5749
1banks busy for read cycles: 1583952
1banks busy for write cycles: 766740
2banks busy for read cycles: 384478
2banks busy for write cycles: 214360
3banks busy for read cycles: 179688
3banks busy for write cycles: 126195
4banks busy for read cycles: 97390
4banks busy for write cycles: 95955
5banks busy for read cycles: 45768
5banks busy for write cycles: 76249
6banks busy for read cycles: 46305
6banks busy for write cycles: 70507
7banks busy for read cycles: 52705
7banks busy for write cycles: 90922
8banks busy for read cycles: 133728
8banks busy for write cycles: 197344

CPU 0 Branch Prediction Accuracy: 99.7477% MPKI: 0.46156 Average ROB Occupancy at Mispredict: 72.7089
Branch types
NOT_BRANCH: 40853615 81.7072%
BRANCH_DIRECT_JUMP: 566815 1.13363%
BRANCH_INDIRECT: 197171 0.394342%
BRANCH_CONDITIONAL: 6308407 12.6168%
BRANCH_DIRECT_CALL: 876400 1.7528%
BRANCH_INDIRECT_CALL: 160491 0.320982%
BRANCH_RETURN: 1036885 2.07377%
BRANCH_OTHER: 0 0%

DRAM PAGES: 1048576
Allocated PAGES: 2466
