
*** ChampSim Multicore Out-of-Order Simulator ***

Warmup Instructions: 50000000
Simulation Instructions: 50000000
Number of CPUs: 1
LLC sets: 2048
LLC ways: 16
Off-chip DRAM Size: 4096 MB Channels: 1 Width: 64-bit Data Rate: 6400 MT/s
CPU 0 runs ../IPC-traces//server_003.champsimtrace.xz
.xz
NUM_OF_IPS_IN_CRITICAL_IP_TRAINING: 64
NUM_OF_CRITICAL_IP_TRAINING_TABLE_WAYS: 2
NUM_OF_CRITICAL_IP_TRAINING_TABLE_SETS: 32
WOBBLY_CRITICAL_IP_CACHE_SETS: 32
WOBBLY_CRITICAL_IP_CACHE_WAYS: 4
BTB has LRU replacement policy
ITLB has LRU replacement policy
DTLB has LRU replacement policy
STLB has LRU replacement policy
CPU 0 L1I next line prefetcher
L1I has LRU replacement policy
L1D has LRU replacement policy
Bingo PHT WAYS: 16 and PHT_SIZE: 16384
Initialize SRRIP state for L2C
Initialize DRRIP state for LLC
Heartbeat CPU 0 instructions: 10000002 cycles: 2774099 heartbeat IPC: 3.60477 cumulative IPC: 3.60477 (Simulation time: 0 hr 3 min 9 sec) 
Heartbeat CPU 0 instructions: 20000003 cycles: 5579208 heartbeat IPC: 3.56492 cumulative IPC: 3.58474 (Simulation time: 0 hr 5 min 36 sec) 
Heartbeat CPU 0 instructions: 30000002 cycles: 8341442 heartbeat IPC: 3.62026 cumulative IPC: 3.5965 (Simulation time: 0 hr 7 min 52 sec) 
Heartbeat CPU 0 instructions: 40000001 cycles: 11183273 heartbeat IPC: 3.51886 cumulative IPC: 3.57677 (Simulation time: 0 hr 10 min 7 sec) 
Heartbeat CPU 0 instructions: 50000002 cycles: 14146687 heartbeat IPC: 3.37449 cumulative IPC: 3.5344 (Simulation time: 0 hr 12 min 13 sec) 

Warmup complete CPU 0 instructions: 50000002 cycles: 14146687 (Simulation time: 0 hr 12 min 13 sec) 

% increase in all ip prefetch 631.749
% increase in all ip prefetch -3.63102
Heartbeat CPU 0 instructions: 60000000 cycles: 32392606 heartbeat IPC: 0.548068 cumulative IPC: 0.548068 (Simulation time: 0 hr 14 min 49 sec) 
Heartbeat CPU 0 instructions: 70000003 cycles: 49255512 heartbeat IPC: 0.593018 cumulative IPC: 0.569657 (Simulation time: 0 hr 17 min 11 sec) 
Heartbeat CPU 0 instructions: 80000000 cycles: 66142051 heartbeat IPC: 0.592187 cumulative IPC: 0.576974 (Simulation time: 0 hr 19 min 43 sec) 
Heartbeat CPU 0 instructions: 90000001 cycles: 82364410 heartbeat IPC: 0.616433 cumulative IPC: 0.586358 (Simulation time: 0 hr 22 min 8 sec) 
Heartbeat CPU 0 instructions: 100000001 cycles: 99678994 heartbeat IPC: 0.577548 cumulative IPC: 0.584574 (Simulation time: 0 hr 24 min 55 sec) 
Finished CPU 0 instructions: 50000003 cycles: 85532308 cumulative IPC: 0.584575 (Simulation time: 0 hr 24 min 55 sec) 

ChampSim completed all CPUs

Region of Interest Statistics

CPU 0 cumulative IPC: 0.584575 instructions: 50000003 cycles: 85532308

CPU 0 Average Load ROB stall cycles: 2.32792e+07
CPU 0 Fraction of times ROB stalled by Loads: 42.3087
CPU 0 Percentage of Load stall cycles in Total stall cycles: 2.67752e+08
Issued all: 28069896
Issued LT all: 22203427
rob_not_full_when_issued_lt_all: 21231273
Issued LT one: 17274595
rob_not_full_when_issued_lt_one: 16416487
 Total stall cycles: 69319326
 Total load stall cycles: 185604125510052
CPU 0 NUM of IPS identified critical: 0
CPU 0 Num of Load IPs stalling ROB: 48495
Threshold modification factor: -1
Max PIST entries: 64
Min PIST entries: 0
Avg PIST entries: 32
Trouble in retire width: 0.903013
MaC = Marked as critical.
lt_50_percent_before_Mac: 0
gt_90_percent_before_Mac: 0
gt_75_percent_before_Mac: 0
gt_50_percent_before_Mac: 0
stall_proportion_bin_same_before_after: 0
stall_proportion_bin_lower_before_after: 0
stall_proportion_bin_upper_before_after: 0
average_stall_proportion_before: -nan
average_stall_proportion_after: -nan
Critical IP stalls, total frequency: 0
Non-critical IP stalls, total frequency: 3373261
Total Freq all stalling IPs: 3373261
stat_90_percent_critical_ip_stalls_freq: 3035924
stat_90_percent_non_critical_ip_stalls_freq: 337337
Critical_IP_ROB_Stalls_Bucket_0: 0
Non-critical_IP_ROB_Stalls_Bucket_0: 2017208
Critical_IP_ROB_Stalls_Bucket_1: 0
Non-critical_IP_ROB_Stalls_Bucket_1: 886150
Critical_IP_ROB_Stalls_Bucket_2: 0
Non-critical_IP_ROB_Stalls_Bucket_2: 296631
Critical_IP_ROB_Stalls_Bucket_3: 0
Non-critical_IP_ROB_Stalls_Bucket_3: 82946
Critical_IP_ROB_Stalls_Bucket_4: 0
Non-critical_IP_ROB_Stalls_Bucket_4: 33670
Critical_IP_ROB_Stalls_Bucket_5: 0
Non-critical_IP_ROB_Stalls_Bucket_5: 17488
Critical_IP_ROB_Stalls_Bucket_6: 0
Non-critical_IP_ROB_Stalls_Bucket_6: 39168
0 => IPs accounting for >50 percent of stalls, 1 => 55, 2 => 60, 3 => 65 and so on till 90.
percent50: 50.0106 num IPs:  633
percent55: 55.0041 num IPs: 861
percent60: 60.0018 num IPs: 1153
percent65: 65.0038 num IPs: 1560
percent70: 70.0029 num IPs: 2118
percent75: 75.0011 num IPs: 2930
percent80: 80.0022 num IPs: 4199
percent85: 85.0003 num IPs: 6338
percent90: 90.0009 num IPs: 9944
Critical_ROB_Stalls_Percent_0_Bucket_0: 868051
Non-critical_ROB_Stalls_Percent_0_Bucket_0: 1149157
Critical_ROB_Stalls_Percent_0_Bucket_1: 529826
Non-critical_ROB_Stalls_Percent_0_Bucket_1: 356324
Critical_ROB_Stalls_Percent_0_Bucket_2: 186924
Non-critical_ROB_Stalls_Percent_0_Bucket_2: 109707
Critical_ROB_Stalls_Percent_0_Bucket_3: 46854
Non-critical_ROB_Stalls_Percent_0_Bucket_3: 36092
Critical_ROB_Stalls_Percent_0_Bucket_4: 18865
Non-critical_ROB_Stalls_Percent_0_Bucket_4: 14805
Critical_ROB_Stalls_Percent_0_Bucket_5: 9666
Non-critical_ROB_Stalls_Percent_0_Bucket_5: 7822
Critical_ROB_Stalls_Percent_0_Bucket_6: 26801
Non-critical_ROB_Stalls_Percent_0_Bucket_6: 12367
Critical_ROB_Stalls_Percent_1_Bucket_0: 962685
Non-critical_ROB_Stalls_Percent_1_Bucket_0: 1054523
Critical_ROB_Stalls_Percent_1_Bucket_1: 578322
Non-critical_ROB_Stalls_Percent_1_Bucket_1: 307828
Critical_ROB_Stalls_Percent_1_Bucket_2: 202626
Non-critical_ROB_Stalls_Percent_1_Bucket_2: 94005
Critical_ROB_Stalls_Percent_1_Bucket_3: 51260
Non-critical_ROB_Stalls_Percent_1_Bucket_3: 31686
Critical_ROB_Stalls_Percent_1_Bucket_4: 20913
Non-critical_ROB_Stalls_Percent_1_Bucket_4: 12757
Critical_ROB_Stalls_Percent_1_Bucket_5: 10740
Non-critical_ROB_Stalls_Percent_1_Bucket_5: 6748
Critical_ROB_Stalls_Percent_1_Bucket_6: 28884
Non-critical_ROB_Stalls_Percent_1_Bucket_6: 10284
Critical_ROB_Stalls_Percent_2_Bucket_0: 1066535
Non-critical_ROB_Stalls_Percent_2_Bucket_0: 950673
Critical_ROB_Stalls_Percent_2_Bucket_1: 623176
Non-critical_ROB_Stalls_Percent_2_Bucket_1: 262974
Critical_ROB_Stalls_Percent_2_Bucket_2: 213956
Non-critical_ROB_Stalls_Percent_2_Bucket_2: 82675
Critical_ROB_Stalls_Percent_2_Bucket_3: 54972
Non-critical_ROB_Stalls_Percent_2_Bucket_3: 27974
Critical_ROB_Stalls_Percent_2_Bucket_4: 22602
Non-critical_ROB_Stalls_Percent_2_Bucket_4: 11068
Critical_ROB_Stalls_Percent_2_Bucket_5: 11495
Non-critical_ROB_Stalls_Percent_2_Bucket_5: 5993
Critical_ROB_Stalls_Percent_2_Bucket_6: 31280
Non-critical_ROB_Stalls_Percent_2_Bucket_6: 7888
Critical_ROB_Stalls_Percent_3_Bucket_0: 1171005
Non-critical_ROB_Stalls_Percent_3_Bucket_0: 846203
Critical_ROB_Stalls_Percent_3_Bucket_1: 666121
Non-critical_ROB_Stalls_Percent_3_Bucket_1: 220029
Critical_ROB_Stalls_Percent_3_Bucket_2: 227219
Non-critical_ROB_Stalls_Percent_3_Bucket_2: 69412
Critical_ROB_Stalls_Percent_3_Bucket_3: 59411
Non-critical_ROB_Stalls_Percent_3_Bucket_3: 23535
Critical_ROB_Stalls_Percent_3_Bucket_4: 24235
Non-critical_ROB_Stalls_Percent_3_Bucket_4: 9435
Critical_ROB_Stalls_Percent_3_Bucket_5: 12267
Non-critical_ROB_Stalls_Percent_3_Bucket_5: 5221
Critical_ROB_Stalls_Percent_3_Bucket_6: 32492
Non-critical_ROB_Stalls_Percent_3_Bucket_6: 6676
Critical_ROB_Stalls_Percent_4_Bucket_0: 1271567
Non-critical_ROB_Stalls_Percent_4_Bucket_0: 745641
Critical_ROB_Stalls_Percent_4_Bucket_1: 712298
Non-critical_ROB_Stalls_Percent_4_Bucket_1: 173852
Critical_ROB_Stalls_Percent_4_Bucket_2: 239792
Non-critical_ROB_Stalls_Percent_4_Bucket_2: 56839
Critical_ROB_Stalls_Percent_4_Bucket_3: 63808
Non-critical_ROB_Stalls_Percent_4_Bucket_3: 19138
Critical_ROB_Stalls_Percent_4_Bucket_4: 26130
Non-critical_ROB_Stalls_Percent_4_Bucket_4: 7540
Critical_ROB_Stalls_Percent_4_Bucket_5: 13652
Non-critical_ROB_Stalls_Percent_4_Bucket_5: 3836
Critical_ROB_Stalls_Percent_4_Bucket_6: 34137
Non-critical_ROB_Stalls_Percent_4_Bucket_6: 5031
Critical_ROB_Stalls_Percent_5_Bucket_0: 1382357
Non-critical_ROB_Stalls_Percent_5_Bucket_0: 634851
Critical_ROB_Stalls_Percent_5_Bucket_1: 751504
Non-critical_ROB_Stalls_Percent_5_Bucket_1: 134646
Critical_ROB_Stalls_Percent_5_Bucket_2: 251446
Non-critical_ROB_Stalls_Percent_5_Bucket_2: 45185
Critical_ROB_Stalls_Percent_5_Bucket_3: 67587
Non-critical_ROB_Stalls_Percent_5_Bucket_3: 15359
Critical_ROB_Stalls_Percent_5_Bucket_4: 27608
Non-critical_ROB_Stalls_Percent_5_Bucket_4: 6062
Critical_ROB_Stalls_Percent_5_Bucket_5: 14465
Non-critical_ROB_Stalls_Percent_5_Bucket_5: 3023
Critical_ROB_Stalls_Percent_5_Bucket_6: 35020
Non-critical_ROB_Stalls_Percent_5_Bucket_6: 4148
Critical_ROB_Stalls_Percent_6_Bucket_0: 1494124
Non-critical_ROB_Stalls_Percent_6_Bucket_0: 523084
Critical_ROB_Stalls_Percent_6_Bucket_1: 788283
Non-critical_ROB_Stalls_Percent_6_Bucket_1: 97867
Critical_ROB_Stalls_Percent_6_Bucket_2: 263436
Non-critical_ROB_Stalls_Percent_6_Bucket_2: 33195
Critical_ROB_Stalls_Percent_6_Bucket_3: 71771
Non-critical_ROB_Stalls_Percent_6_Bucket_3: 11175
Critical_ROB_Stalls_Percent_6_Bucket_4: 29516
Non-critical_ROB_Stalls_Percent_6_Bucket_4: 4154
Critical_ROB_Stalls_Percent_6_Bucket_5: 15442
Non-critical_ROB_Stalls_Percent_6_Bucket_5: 2046
Critical_ROB_Stalls_Percent_6_Bucket_6: 36113
Non-critical_ROB_Stalls_Percent_6_Bucket_6: 3055
Critical_ROB_Stalls_Percent_7_Bucket_0: 1614646
Non-critical_ROB_Stalls_Percent_7_Bucket_0: 402562
Critical_ROB_Stalls_Percent_7_Bucket_1: 819438
Non-critical_ROB_Stalls_Percent_7_Bucket_1: 66712
Critical_ROB_Stalls_Percent_7_Bucket_2: 272704
Non-critical_ROB_Stalls_Percent_7_Bucket_2: 23927
Critical_ROB_Stalls_Percent_7_Bucket_3: 75506
Non-critical_ROB_Stalls_Percent_7_Bucket_3: 7440
Critical_ROB_Stalls_Percent_7_Bucket_4: 31104
Non-critical_ROB_Stalls_Percent_7_Bucket_4: 2566
Critical_ROB_Stalls_Percent_7_Bucket_5: 16235
Non-critical_ROB_Stalls_Percent_7_Bucket_5: 1253
Critical_ROB_Stalls_Percent_7_Bucket_6: 37634
Non-critical_ROB_Stalls_Percent_7_Bucket_6: 1534
Critical_ROB_Stalls_Percent_8_Bucket_0: 1740817
Non-critical_ROB_Stalls_Percent_8_Bucket_0: 276391
Critical_ROB_Stalls_Percent_8_Bucket_1: 847166
Non-critical_ROB_Stalls_Percent_8_Bucket_1: 38984
Critical_ROB_Stalls_Percent_8_Bucket_2: 282341
Non-critical_ROB_Stalls_Percent_8_Bucket_2: 14290
Critical_ROB_Stalls_Percent_8_Bucket_3: 78400
Non-critical_ROB_Stalls_Percent_8_Bucket_3: 4546
Critical_ROB_Stalls_Percent_8_Bucket_4: 32226
Non-critical_ROB_Stalls_Percent_8_Bucket_4: 1444
Critical_ROB_Stalls_Percent_8_Bucket_5: 16739
Non-critical_ROB_Stalls_Percent_8_Bucket_5: 749
Critical_ROB_Stalls_Percent_8_Bucket_6: 38235
Non-critical_ROB_Stalls_Percent_8_Bucket_6: 933
Average ROB occupancy Load Stall Begin: 46.6312
Average ROB occupancy Load Stall End: 55.9518
Min ROB occupancy Load Stall Begin: 1
Max ROB occupancy Load Stall Begin: 352
Min ROB occupancy Load Stall End: 1
Max ROB occupancy Load Stall End: 352
Average ROB occupancy Critical Load Stall Begin: -nan
Average ROB occupancy Critical Load Stall End: -nan
Min ROB occupancy Critical Load Stall Begin: 400
Max ROB occupancy Critical Load Stall Begin: 0
Min ROB occupancy Critical Load Stall End: 400
Max ROB occupancy Critical Load Stall End: 0
 ROB Load Stall Begin Bucket Count 0: 2337136
 ROB Load Stall End Bucket Count 0: 2017208
 ROB Critical Load Stall Begin Bucket Count 0: 0
 ROB Critical Load Stall End Bucket Count 0: 0
 ROB Load Stall Begin Bucket Count 1: 673214
 ROB Load Stall End Bucket Count 1: 886150
 ROB Critical Load Stall Begin Bucket Count 1: 0
 ROB Critical Load Stall End Bucket Count 1: 0
 ROB Load Stall Begin Bucket Count 2: 223877
 ROB Load Stall End Bucket Count 2: 296631
 ROB Critical Load Stall Begin Bucket Count 2: 0
 ROB Critical Load Stall End Bucket Count 2: 0
 ROB Load Stall Begin Bucket Count 3: 61029
 ROB Load Stall End Bucket Count 3: 82946
 ROB Critical Load Stall Begin Bucket Count 3: 0
 ROB Critical Load Stall End Bucket Count 3: 0
 ROB Load Stall Begin Bucket Count 4: 27192
 ROB Load Stall End Bucket Count 4: 33670
 ROB Critical Load Stall Begin Bucket Count 4: 0
 ROB Critical Load Stall End Bucket Count 4: 0
 ROB Load Stall Begin Bucket Count 5: 15189
 ROB Load Stall End Bucket Count 5: 17488
 ROB Critical Load Stall Begin Bucket Count 5: 0
 ROB Critical Load Stall End Bucket Count 5: 0
 ROB Load Stall Begin Bucket Count 6: 35624
 ROB Load Stall End Bucket Count 6: 39168
 ROB Critical Load Stall Begin Bucket Count 6: 0
 ROB Critical Load Stall End Bucket Count 6: 0
PIST Tag Read Accesses: 2770638
PIST Read Accesses: 1385319
PIST Tag Write Accesses: 2770638
PIST Write Accesses: 1385319
Criticality detector called times: 3024293
Max global_stall_cycles_count: 3476412
Threshold Modified: 1 times, factor: -1
Sturdy critical IP cache stats: 
 Unused entries: 0
CIC Tag Read Accesses: 0
CIC Read Accesses: 0
CIC Tag Write Accesses: 0
CIC Write Accesses: 0
Wobbly critical IP cache stats: 
 Unused entries: 12
CIC Tag Read Accesses: 82585452
CIC Read Accesses: 0
CIC Tag Write Accesses: 35039
CIC Write Accesses: 0
ITLB TOTAL     ACCESS:    9182163  HIT:    9022876  MISS:     159287  HIT %:    98.2653  MISS %:    1.73474   MPKI: 3.18574
ITLB LOAD TRANSLATION ACCESS:    8301649  HIT:    8233049  MISS:      68600  HIT %:    99.1737  MISS %:   0.826342   MPKI: 1.372
ITLB TRANSLATION FROM L1D PREFETCHER ACCESS:     880514  HIT:     789827  MISS:      90687  HIT %:    89.7007  MISS %:    10.2993   MPKI: 1.81374
ITLB PREFETCH  REQUESTED:          0  ISSUED:          0  USEFUL:      74177  USELESS:      16513
ITLB USEFUL LOAD PREFETCHES:      74177 PREFETCH ISSUED TO LOWER LEVEL:          0  ACCURACY: inf
ITLB TIMELY PREFETCHES:      74177 LATE PREFETCHES: 567 DROPPED PREFETCHES: 2888
ITLB PREFETCHES SAME FILL-ORIGIN LEVEL: 0 DIFFERENT FILL-ORIGIN LEVEL: 0
ITLB AVERAGE MISS LATENCY: 244909 cycles
ITLB RQ	ACCESS:   12113614	FORWARD:          0	MERGED:    2903788	TO_CACHE:    9209826

DTLB TOTAL     ACCESS:   10634927  HIT:   10202182  MISS:     432745  HIT %:    95.9309  MISS %:    4.06909   MPKI: 8.6549
DTLB LOAD TRANSLATION ACCESS:   10634927  HIT:   10202182  MISS:     432745  HIT %:    95.9309  MISS %:    4.06909   MPKI: 8.6549
DTLB PREFETCH  REQUESTED:          0  ISSUED:          0  USEFUL:          0  USELESS:          0
DTLB USEFUL LOAD PREFETCHES:          0 PREFETCH ISSUED TO LOWER LEVEL:          0  ACCURACY: -nan
DTLB TIMELY PREFETCHES:          0 LATE PREFETCHES: 0 DROPPED PREFETCHES: 0
DTLB PREFETCHES SAME FILL-ORIGIN LEVEL: 0 DIFFERENT FILL-ORIGIN LEVEL: 0
DTLB AVERAGE MISS LATENCY: 16.9523 cycles
DTLB RQ	ACCESS:   13165061	FORWARD:          0	MERGED:    2500949	TO_CACHE:   10664112

STLB TOTAL     ACCESS:     592028  HIT:     510126  MISS:      81902  HIT %:    86.1659  MISS %:    13.8341   MPKI: 1.63804
STLB LOAD TRANSLATION ACCESS:     500778  HIT:     431480  MISS:      69298  HIT %:    86.1619  MISS %:    13.8381   MPKI: 1.38596
STLB TRANSLATION FROM L1D PREFETCHER ACCESS:      91250  HIT:      78646  MISS:      12604  HIT %:    86.1874  MISS %:    13.8126   MPKI: 0.25208
STLB PREFETCH  REQUESTED:          0  ISSUED:          0  USEFUL:       6409  USELESS:       6159
STLB USEFUL LOAD PREFETCHES:       6409 PREFETCH ISSUED TO LOWER LEVEL:          0  ACCURACY: inf
STLB TIMELY PREFETCHES:       6409 LATE PREFETCHES: 4 DROPPED PREFETCHES: 2888
STLB PREFETCHES SAME FILL-ORIGIN LEVEL: 0 DIFFERENT FILL-ORIGIN LEVEL: 0
STLB AVERAGE MISS LATENCY: 59.7774 cycles
STLB RQ	ACCESS:     594921	FORWARD:          0	MERGED:          0	TO_CACHE:     594921

STLB Hit, L1D data hit: 0
STLB Hit, L2C data hit: 0
STLB Hit, LLC data hit: 0
STLB Hit, LLC data miss: 0
STLB STLB hints to L2: 0
L1D TOTAL     ACCESS:   12935227  HIT:   12207177  MISS:     728050  HIT %:    94.3716  MISS %:    5.62843   MPKI: 14.561
L1D LOAD      ACCESS:    8383265  HIT:    7782855  MISS:     600410  HIT %:     92.838  MISS %:    7.16201   MPKI: 12.0082
L1D RFO       ACCESS:    4551962  HIT:    4424322  MISS:     127640  HIT %:    97.1959  MISS %:    2.80407   MPKI: 2.5528
L1D PREFETCH  REQUESTED:          0  ISSUED:          0  USEFUL:          0  USELESS:          0
L1D USEFUL LOAD PREFETCHES:          0 PREFETCH ISSUED TO LOWER LEVEL:          0  ACCURACY: -nan
L1D TIMELY PREFETCHES:          0 LATE PREFETCHES: 0 DROPPED PREFETCHES: 0
L1D PREFETCHES SAME FILL-ORIGIN LEVEL: 0 DIFFERENT FILL-ORIGIN LEVEL: 0
L1D AVERAGE MISS LATENCY: 50.8898 cycles
L1D RQ	ACCESS:   12689875	FORWARD:          0	MERGED:    4167693	TO_CACHE:    8435791
L1D WQ	ACCESS:    4823332	FORWARD:      86391	MERGED:      94062	TO_CACHE:    4729270

L1D UNIQUE REGIONS ACCESSED: 0
L1D REGIONS CONFLICTS: 0
L1D Cross Page Prefetch Requests: 0
L1D Same Page Prefetch Requests: 0
L1D ROI Sum of L1D PQ occupancy: 0
L1D PREFETCHES PUSHED FROM L2C: 0
L1I TOTAL     ACCESS:   11983217  HIT:   10605216  MISS:    1378001  HIT %:    88.5006  MISS %:    11.4994   MPKI: 27.56
L1I LOAD      ACCESS:    9934768  HIT:    9683632  MISS:     251136  HIT %:    97.4722  MISS %:    2.52785   MPKI: 5.02272
L1I PREFETCH  ACCESS:    2048449  HIT:     921584  MISS:    1126865  HIT %:    44.9894  MISS %:    55.0106   MPKI: 22.5373
L1I PREFETCH  REQUESTED:    2254767  ISSUED:    2250671  USEFUL:     723469  USELESS:     403353
L1I USEFUL LOAD PREFETCHES:     723469 PREFETCH ISSUED TO LOWER LEVEL:    1178414  ACCURACY: 61.3934
L1I TIMELY PREFETCHES:     723469 LATE PREFETCHES: 28135 DROPPED PREFETCHES: 8902
L1I PREFETCHES SAME FILL-ORIGIN LEVEL: 1178414 DIFFERENT FILL-ORIGIN LEVEL: 0
L1I AVERAGE MISS LATENCY: 1.25715e+06 cycles
L1I RQ	ACCESS:   14279720	FORWARD:          0	MERGED:    4320903	TO_CACHE:    9958817
L1I PQ	ACCESS:    2250671	FORWARD:          0	MERGED:      95874	TO_CACHE:    2154797

BTB TOTAL     ACCESS:    6374145  HIT:    5543345  MISS:     830800  HIT %:    86.9661  MISS %:    13.0339   MPKI: 16.616
BTB BRANCH_DIRECT_JUMP	ACCESS:     497927  HIT:     456451  MISS:      41476
BTB BRANCH_INDIRECT	ACCESS:     130586  HIT:     102079  MISS:      28507
BTB BRANCH_CONDITIONAL	ACCESS:    3697298  HIT:    3536491  MISS:     160807
BTB BRANCH_DIRECT_CALL	ACCESS:     625806  HIT:     549571  MISS:      76235
BTB BRANCH_INDIRECT_CALL	ACCESS:     389785  HIT:     241920  MISS:     147865
BTB BRANCH_RETURN	ACCESS:    1032743  HIT:     656833  MISS:     375910
BTB BRANCH_OTHER ACCESS:          0  HIT:          0  MISS:          0

L2C TOTAL     ACCESS:    2844126  HIT:    1837116  MISS:    1007010  HIT %:    64.5933  MISS %:    35.4067   MPKI: 20.1402
L2C LOAD      ACCESS:     823387  HIT:     545798  MISS:     277589  HIT %:    66.2869  MISS %:    33.7131   MPKI: 5.55178
L2C DATA LOAD MPKI: 3.6792
L2C INSTRUCTION LOAD MPKI: 1.87258
L2C RFO       ACCESS:     127625  HIT:      47418  MISS:      80207  HIT %:    37.1542  MISS %:    62.8458   MPKI: 1.60414
L2C PREFETCH  ACCESS:    1519410  HIT:     928559  MISS:     590851  HIT %:    61.1131  MISS %:    38.8869   MPKI: 11.817
L2C DATA PREFETCH MPKI: 3.79668
L2C INSTRUCTION PREFETCH MPKI: 8.02034
L2C WRITEBACK ACCESS:     266840  HIT:     252884  MISS:      13956  HIT %:    94.7699  MISS %:     5.2301   MPKI: 0.27912
L2C LOAD TRANSLATION ACCESS:      87790  HIT:      49219  MISS:      38571  HIT %:    56.0645  MISS %:    43.9355   MPKI: 0.77142
L2C TRANSLATION FROM L1D PREFETCHER ACCESS:      19074  HIT:      13238  MISS:       5836  HIT %:    69.4034  MISS %:    30.5966   MPKI: 0.11672
L2C PREFETCH  REQUESTED:     377761  ISSUED:     377761  USEFUL:     118643  USELESS:     476728
L2C USEFUL LOAD PREFETCHES:     118643 PREFETCH ISSUED TO LOWER LEVEL:     594144  ACCURACY: 19.9687
L2C TIMELY PREFETCHES:     118643 LATE PREFETCHES: 3293 DROPPED PREFETCHES: 0
L2C PREFETCHES SAME FILL-ORIGIN LEVEL: 193125 DIFFERENT FILL-ORIGIN LEVEL: 0
L2C AVERAGE MISS LATENCY: 68.9745 cycles
L2C RQ	ACCESS:    1057916	FORWARD:          0	MERGED:          0	TO_CACHE:    1057877
L2C WQ	ACCESS:     266840	FORWARD:         43	MERGED:          0	TO_CACHE:     266840
L2C PQ	ACCESS:    1532761	FORWARD:          0	MERGED:          0	TO_CACHE:    1532757

L2C Instructions Evicting Data 221927
L2C Translations Evicting Data 19900
L2C Data Evicting Data 222148
L2C Instructions Evicting Instructions 250985
L2C Translations Evicting Instructions 22851
L2C Data Evicting Instructions 211797
L2C Instructions Evicting Translations 21734
L2C Translations Evicting Translations 1656
L2C Data Evicting Translations 20056
L2C Dense regions hint from L2: 0
PSCL5 TOTAL     ACCESS:      84791  HIT:      84791  MISS:          0  HIT %:        100  MISS %:          0   MPKI: 0
PSCL5 LOAD TRANSLATION ACCESS:      69295  HIT:      69295  MISS:          0  HIT %:        100  MISS %:          0   MPKI: 0
PSCL5 TRANSLATION FROM L1D PREFETCHER ACCESS:      15496  HIT:      15496  MISS:          0  HIT %:        100  MISS %:          0   MPKI: 0
PSCL5 PREFETCH  REQUESTED:          0  ISSUED:          0  USEFUL:          0  USELESS:          0
PSCL5 USEFUL LOAD PREFETCHES:          0 PREFETCH ISSUED TO LOWER LEVEL:          0  ACCURACY: -nan
PSCL5 TIMELY PREFETCHES:          0 LATE PREFETCHES: 0 DROPPED PREFETCHES: 0
PSCL5 PREFETCHES SAME FILL-ORIGIN LEVEL: 0 DIFFERENT FILL-ORIGIN LEVEL: 0

PSCL4 TOTAL     ACCESS:      78140  HIT:      77947  MISS:        193  HIT %:     99.753  MISS %:   0.246993   MPKI: 0.00386
PSCL4 LOAD TRANSLATION ACCESS:      64335  HIT:      64142  MISS:        193  HIT %:       99.7  MISS %:   0.299992   MPKI: 0.00386
PSCL4 TRANSLATION FROM L1D PREFETCHER ACCESS:      13805  HIT:      13805  MISS:          0  HIT %:        100  MISS %:          0   MPKI: 0
PSCL4 PREFETCH  REQUESTED:          0  ISSUED:          0  USEFUL:          0  USELESS:          0
PSCL4 USEFUL LOAD PREFETCHES:          0 PREFETCH ISSUED TO LOWER LEVEL:          0  ACCURACY: -nan
PSCL4 TIMELY PREFETCHES:          0 LATE PREFETCHES: 0 DROPPED PREFETCHES: 0
PSCL4 PREFETCHES SAME FILL-ORIGIN LEVEL: 0 DIFFERENT FILL-ORIGIN LEVEL: 0

PSCL3 TOTAL     ACCESS:      83629  HIT:      83124  MISS:        505  HIT %:    99.3961  MISS %:   0.603858   MPKI: 0.0101
PSCL3 LOAD TRANSLATION ACCESS:      69044  HIT:      68539  MISS:        505  HIT %:    99.2686  MISS %:   0.731418   MPKI: 0.0101
PSCL3 TRANSLATION FROM L1D PREFETCHER ACCESS:      14585  HIT:      14585  MISS:          0  HIT %:        100  MISS %:          0   MPKI: 0
PSCL3 PREFETCH  REQUESTED:          0  ISSUED:          0  USEFUL:          0  USELESS:          0
PSCL3 USEFUL LOAD PREFETCHES:          0 PREFETCH ISSUED TO LOWER LEVEL:          0  ACCURACY: -nan
PSCL3 TIMELY PREFETCHES:          0 LATE PREFETCHES: 0 DROPPED PREFETCHES: 0
PSCL3 PREFETCHES SAME FILL-ORIGIN LEVEL: 0 DIFFERENT FILL-ORIGIN LEVEL: 0

PSCL2 TOTAL     ACCESS:      83895  HIT:      63875  MISS:      20020  HIT %:    76.1368  MISS %:    23.8632   MPKI: 0.4004
PSCL2 LOAD TRANSLATION ACCESS:      71341  HIT:      51321  MISS:      20020  HIT %:    71.9376  MISS %:    28.0624   MPKI: 0.4004
PSCL2 TRANSLATION FROM L1D PREFETCHER ACCESS:      12554  HIT:      12554  MISS:          0  HIT %:        100  MISS %:          0   MPKI: 0
PSCL2 PREFETCH  REQUESTED:          0  ISSUED:          0  USEFUL:          0  USELESS:          0
PSCL2 USEFUL LOAD PREFETCHES:          0 PREFETCH ISSUED TO LOWER LEVEL:          0  ACCURACY: -nan
PSCL2 TIMELY PREFETCHES:          0 LATE PREFETCHES: 0 DROPPED PREFETCHES: 0
PSCL2 PREFETCHES SAME FILL-ORIGIN LEVEL: 0 DIFFERENT FILL-ORIGIN LEVEL: 0

LLC TOTAL     ACCESS:    1140020  HIT:     908722  MISS:     231298  HIT %:    79.7111  MISS %:    20.2889   MPKI: 4.62596
LLC LOAD      ACCESS:     274312  HIT:     211816  MISS:      62496  HIT %:    77.2172  MISS %:    22.7828   MPKI: 1.24992
LLC RFO       ACCESS:      80187  HIT:      29487  MISS:      50700  HIT %:    36.7728  MISS %:    63.2272   MPKI: 1.014
LLC PREFETCH  ACCESS:     594142  HIT:     487536  MISS:     106606  HIT %:    82.0572  MISS %:    17.9428   MPKI: 2.13212
LLC WRITEBACK ACCESS:     146972  HIT:     140654  MISS:       6318  HIT %:    95.7012  MISS %:    4.29878   MPKI: 0.12636
LLC LOAD TRANSLATION ACCESS:      38571  HIT:      33786  MISS:       4785  HIT %:    87.5943  MISS %:    12.4057   MPKI: 0.0957
LLC TRANSLATION FROM L1D PREFETCHER ACCESS:       5836  HIT:       5443  MISS:        393  HIT %:    93.2659  MISS %:    6.73406   MPKI: 0.00786
LLC PREFETCH  REQUESTED:          0  ISSUED:          0  USEFUL:      11280  USELESS:      90452
LLC USEFUL LOAD PREFETCHES:      11280 PREFETCH ISSUED TO LOWER LEVEL:     106606  ACCURACY: 10.581
LLC TIMELY PREFETCHES:      11280 LATE PREFETCHES: 0 DROPPED PREFETCHES: 0
LLC PREFETCHES SAME FILL-ORIGIN LEVEL: 0 DIFFERENT FILL-ORIGIN LEVEL: 0
LLC AVERAGE MISS LATENCY: 171.65 cycles
LLC RQ	ACCESS:     398910	FORWARD:          0	MERGED:          0	TO_CACHE:     398906
LLC WQ	ACCESS:     146972	FORWARD:          6	MERGED:          0	TO_CACHE:     146972
LLC PQ	ACCESS:     594144	FORWARD:          0	MERGED:          0	TO_CACHE:     594142

LLC Dense regions hint to LLC: 0

RAW hits: 1001138
Loads Generated: 13691013
Loads sent to L1D: 12689875
Stores Generated: 4823327
Stores sent to L1D: 4823332
Major fault: 0 Minor fault: 8067
Allocated PAGES: 8067
I-Shadow cache 408 bytes
Touched + WorthPF tables 6144 bytes 
MMA filter 174 bytes 
FNL filter 272 bytes 
TOTAL PREFETCHER STORAGE SIZE: 25174 bytes
CPU 0 L1I next line prefetcher final stats
[Bingo] PHT Access: 160534
[Bingo] PHT Hit PC+Addr: 68239
[Bingo] PHT Hit PC+Offs: 17852
[Bingo] PHT Miss: 74443
[Bingo] Prefetch PC+Addr: 0
[Bingo] Prefetch PC+Offs: 0
[Bingo] Useful PC+Addr: 0
[Bingo] Useful PC+Offs: 0
[Bingo] Useless PC+Addr: 0
[Bingo] Useless PC+Offs: 0
[Bingo] L1 Prefetch per Region: 0
[Bingo] L2 Prefetch per Region: 5.45225
[Bingo] L3 Prefetch per Region: 0
[Bingo] No Prefetch per Region: 26.5477
[Bingo] Number of Voters Mean: 3.02364
[Bingo] Number of Voters SD: 4.59336
PHT read accesses: 1959146
PHT write accesses: 77111
AT read accesses: 470778
AT write accesses: 516510
FT read accesses: 252925
FT write accesses: 160534
PS read accesses: 179251
PS write accesses: 86091
PHT tag read accesses: 3521426
PHT tag write accesses: 145350
AT tag read accesses: 29268903
AT tag write accesses: 550133
FT tag read accesses: 25707972
FT tag write accesses: 331407
PS tag read accesses: 12814163
PS tag write accesses: 264529

DRAM Statistics
 CHANNEL 0
 RQ ROW_BUFFER_HIT:      57611  ROW_BUFFER_MISS:     167360
 DBUS_CONGESTED:        161
 WQ ROW_BUFFER_HIT:      17111  ROW_BUFFER_MISS:      77521  FULL:          0

 AVG_CONGESTED_CYCLE: 4
 All warmup complete: 2
Channel 0 Bank busy for read cycles: 0
Channel 0 Bank busy for write cycles: 0
Channel 0
Rank 0
0banks busy for read cycles: 64404638
0banks busy for write cycles: 26644
1banks busy for read cycles: 8309239
1banks busy for write cycles: 3486411
2banks busy for read cycles: 2511056
2banks busy for write cycles: 1218246
3banks busy for read cycles: 1071143
3banks busy for write cycles: 638026
4banks busy for read cycles: 623109
4banks busy for write cycles: 413143
5banks busy for read cycles: 428094
5banks busy for write cycles: 315563
6banks busy for read cycles: 409168
6banks busy for write cycles: 256892
7banks busy for read cycles: 275493
7banks busy for write cycles: 279174
8banks busy for read cycles: 313928
8banks busy for write cycles: 552342

CPU 0 Branch Prediction Accuracy: 95.439% MPKI: 9.02702 Average ROB Occupancy at Mispredict: 39.7645
Branch types
NOT_BRANCH: 40103828 80.2077%
BRANCH_DIRECT_JUMP: 497927 0.995854%
BRANCH_INDIRECT: 130586 0.261172%
BRANCH_CONDITIONAL: 7218977 14.438%
BRANCH_DIRECT_CALL: 625806 1.25161%
BRANCH_INDIRECT_CALL: 389785 0.77957%
BRANCH_RETURN: 1032743 2.06549%
BRANCH_OTHER: 0 0%

DRAM PAGES: 1048576
Allocated PAGES: 8067
