
*** ChampSim Multicore Out-of-Order Simulator ***

Warmup Instructions: 50000000
Simulation Instructions: 50000000
Number of CPUs: 1
LLC sets: 2048
LLC ways: 16
Off-chip DRAM Size: 4096 MB Channels: 1 Width: 64-bit Data Rate: 6400 MT/s
CPU 0 runs ../IPC-traces//server_027.champsimtrace.xz
.xz
BTB has LRU replacement policy
ITLB has LRU replacement policy
DTLB has LRU replacement policy
STLB has LRU replacement policy
CPU 0 L1I next line prefetcher
L1I has LRU replacement policy
IP Table Entries: 64
L1D has LRU replacement policy
Initialize SRRIP state for L2C
Initialize DRRIP state for LLC
Heartbeat CPU 0 instructions: 10000000 cycles: 2884650 heartbeat IPC: 3.46662 cumulative IPC: 3.46662 (Simulation time: 0 hr 3 min 20 sec) 
Heartbeat CPU 0 instructions: 20000001 cycles: 5766891 heartbeat IPC: 3.46952 cumulative IPC: 3.46807 (Simulation time: 0 hr 6 min 45 sec) 
Heartbeat CPU 0 instructions: 30000002 cycles: 8648700 heartbeat IPC: 3.47004 cumulative IPC: 3.46873 (Simulation time: 0 hr 10 min 0 sec) 
Heartbeat CPU 0 instructions: 40000000 cycles: 11531434 heartbeat IPC: 3.46893 cumulative IPC: 3.46878 (Simulation time: 0 hr 13 min 23 sec) 
Heartbeat CPU 0 instructions: 50000001 cycles: 14412426 heartbeat IPC: 3.47103 cumulative IPC: 3.46923 (Simulation time: 0 hr 16 min 39 sec) 

Warmup complete CPU 0 instructions: 50000001 cycles: 14412426 (Simulation time: 0 hr 16 min 39 sec) 

Heartbeat CPU 0 instructions: 60000002 cycles: 30833111 heartbeat IPC: 0.608988 cumulative IPC: 0.608988 (Simulation time: 0 hr 19 min 49 sec) 
Heartbeat CPU 0 instructions: 70000001 cycles: 47174522 heartbeat IPC: 0.611942 cumulative IPC: 0.610462 (Simulation time: 0 hr 23 min 15 sec) 
Heartbeat CPU 0 instructions: 80000002 cycles: 63425398 heartbeat IPC: 0.615351 cumulative IPC: 0.612083 (Simulation time: 0 hr 26 min 35 sec) 
Heartbeat CPU 0 instructions: 90000000 cycles: 79785952 heartbeat IPC: 0.611226 cumulative IPC: 0.611868 (Simulation time: 0 hr 29 min 50 sec) 
Heartbeat CPU 0 instructions: 100000002 cycles: 95971897 heartbeat IPC: 0.61782 cumulative IPC: 0.61305 (Simulation time: 0 hr 32 min 56 sec) 
Finished CPU 0 instructions: 50000001 cycles: 81559471 cumulative IPC: 0.61305 (Simulation time: 0 hr 32 min 56 sec) 

ChampSim completed all CPUs

Region of Interest Statistics

CPU 0 cumulative IPC: 0.61305 instructions: 50000001 cycles: 81559471

CPU 0 Average Load ROB stall cycles: 1.98088e+07
CPU 0 Fraction of times ROB stalled by Loads: 35.834
CPU 0 Percentage of Load stall cycles in Total stall cycles: 2.8729e+08
Issued all: 28165003
Issued LT all: 22384550
rob_not_full_when_issued_lt_all: 22059794
Issued LT one: 17347009
rob_not_full_when_issued_lt_one: 17066335
 Total stall cycles: 68167457
 Total load stall cycles: 195838570853342
Unique Load IPs: 14113
CPU 0 NUM of IPS identified critical: 45
CPU 0 Num of Load IPs stalling ROB: 0
Threshold modification factor: 0
Trouble in retire width: -nan
MaC = Marked as critical.
lt_50_percent_before_Mac: 12
gt_90_percent_before_Mac: 7
gt_75_percent_before_Mac: 10
gt_50_percent_before_Mac: 12
stall_proportion_bin_same_before_after: 0
stall_proportion_bin_lower_before_after: 0
stall_proportion_bin_upper_before_after: 0
average_stall_proportion_before: 0.0330624
average_stall_proportion_after: 0.034606
Critical_IP_Detector_Accuracy_70: 0
Critical_IP_Detector_Accuracy_80: 0
Critical_IP_Detector_Accuracy_90: 0
Critical_IP_Detector_Coverage_70: 0
Critical_IP_Detector_Coverage_80: 0
Critical_IP_Detector_Coverage_90: 0
stat_90_percent_critical_ip_stalls_freq: 73830
stat_90_percent_non_critical_ip_stalls_freq: 18446744073709477786
AVERAGE_ROB_Occupancy_90_Percent_Critical_IP_Stalls: 100.102
AVERAGE_ROB_Occupancy_90_Percent_Non_Critical_IP_Stalls: 8.09118e-12
Critical_IP_ROB_Stalls_Bucket_0: 23829
Non-critical_IP_ROB_Stalls_Bucket_0: 2509748
Critical_IP_ROB_Stalls_Bucket_1: 11574
Non-critical_IP_ROB_Stalls_Bucket_1: 673666
Critical_IP_ROB_Stalls_Bucket_2: 12419
Non-critical_IP_ROB_Stalls_Bucket_2: 205931
Critical_IP_ROB_Stalls_Bucket_3: 3680
Non-critical_IP_ROB_Stalls_Bucket_3: 49353
Critical_IP_ROB_Stalls_Bucket_4: 598
Non-critical_IP_ROB_Stalls_Bucket_4: 20404
Critical_IP_ROB_Stalls_Bucket_5: 173
Non-critical_IP_ROB_Stalls_Bucket_5: 11270
Critical_IP_ROB_Stalls_Bucket_6: 599
Non-critical_IP_ROB_Stalls_Bucket_6: 19464
0 => IPs accounting for >50 percent of stalls, 1 => 55, 2 => 60, 3 => 65 and so on till 90.
percent50: inf num IPs:  1
percent55: inf num IPs: 1
percent60: inf num IPs: 1
percent65: inf num IPs: 1
percent70: inf num IPs: 1
percent75: inf num IPs: 1
percent80: inf num IPs: 1
percent85: inf num IPs: 1
percent90: inf num IPs: 1
Critical_ROB_Stalls_Percent_0_Bucket_0: 2133
Non-critical_ROB_Stalls_Percent_0_Bucket_0: 2531444
Critical_ROB_Stalls_Percent_0_Bucket_1: 49116
Non-critical_ROB_Stalls_Percent_0_Bucket_1: 636124
Critical_ROB_Stalls_Percent_0_Bucket_2: 20107
Non-critical_ROB_Stalls_Percent_0_Bucket_2: 198243
Critical_ROB_Stalls_Percent_0_Bucket_3: 2473
Non-critical_ROB_Stalls_Percent_0_Bucket_3: 50560
Critical_ROB_Stalls_Percent_0_Bucket_4: 1
Non-critical_ROB_Stalls_Percent_0_Bucket_4: 21001
Critical_ROB_Stalls_Percent_0_Bucket_5: 0
Non-critical_ROB_Stalls_Percent_0_Bucket_5: 11443
Critical_ROB_Stalls_Percent_0_Bucket_6: 0
Non-critical_ROB_Stalls_Percent_0_Bucket_6: 20063
Critical_ROB_Stalls_Percent_1_Bucket_0: 2133
Non-critical_ROB_Stalls_Percent_1_Bucket_0: 2531444
Critical_ROB_Stalls_Percent_1_Bucket_1: 49116
Non-critical_ROB_Stalls_Percent_1_Bucket_1: 636124
Critical_ROB_Stalls_Percent_1_Bucket_2: 20107
Non-critical_ROB_Stalls_Percent_1_Bucket_2: 198243
Critical_ROB_Stalls_Percent_1_Bucket_3: 2473
Non-critical_ROB_Stalls_Percent_1_Bucket_3: 50560
Critical_ROB_Stalls_Percent_1_Bucket_4: 1
Non-critical_ROB_Stalls_Percent_1_Bucket_4: 21001
Critical_ROB_Stalls_Percent_1_Bucket_5: 0
Non-critical_ROB_Stalls_Percent_1_Bucket_5: 11443
Critical_ROB_Stalls_Percent_1_Bucket_6: 0
Non-critical_ROB_Stalls_Percent_1_Bucket_6: 20063
Critical_ROB_Stalls_Percent_2_Bucket_0: 2133
Non-critical_ROB_Stalls_Percent_2_Bucket_0: 2531444
Critical_ROB_Stalls_Percent_2_Bucket_1: 49116
Non-critical_ROB_Stalls_Percent_2_Bucket_1: 636124
Critical_ROB_Stalls_Percent_2_Bucket_2: 20107
Non-critical_ROB_Stalls_Percent_2_Bucket_2: 198243
Critical_ROB_Stalls_Percent_2_Bucket_3: 2473
Non-critical_ROB_Stalls_Percent_2_Bucket_3: 50560
Critical_ROB_Stalls_Percent_2_Bucket_4: 1
Non-critical_ROB_Stalls_Percent_2_Bucket_4: 21001
Critical_ROB_Stalls_Percent_2_Bucket_5: 0
Non-critical_ROB_Stalls_Percent_2_Bucket_5: 11443
Critical_ROB_Stalls_Percent_2_Bucket_6: 0
Non-critical_ROB_Stalls_Percent_2_Bucket_6: 20063
Critical_ROB_Stalls_Percent_3_Bucket_0: 2133
Non-critical_ROB_Stalls_Percent_3_Bucket_0: 2531444
Critical_ROB_Stalls_Percent_3_Bucket_1: 49116
Non-critical_ROB_Stalls_Percent_3_Bucket_1: 636124
Critical_ROB_Stalls_Percent_3_Bucket_2: 20107
Non-critical_ROB_Stalls_Percent_3_Bucket_2: 198243
Critical_ROB_Stalls_Percent_3_Bucket_3: 2473
Non-critical_ROB_Stalls_Percent_3_Bucket_3: 50560
Critical_ROB_Stalls_Percent_3_Bucket_4: 1
Non-critical_ROB_Stalls_Percent_3_Bucket_4: 21001
Critical_ROB_Stalls_Percent_3_Bucket_5: 0
Non-critical_ROB_Stalls_Percent_3_Bucket_5: 11443
Critical_ROB_Stalls_Percent_3_Bucket_6: 0
Non-critical_ROB_Stalls_Percent_3_Bucket_6: 20063
Critical_ROB_Stalls_Percent_4_Bucket_0: 2133
Non-critical_ROB_Stalls_Percent_4_Bucket_0: 2531444
Critical_ROB_Stalls_Percent_4_Bucket_1: 49116
Non-critical_ROB_Stalls_Percent_4_Bucket_1: 636124
Critical_ROB_Stalls_Percent_4_Bucket_2: 20107
Non-critical_ROB_Stalls_Percent_4_Bucket_2: 198243
Critical_ROB_Stalls_Percent_4_Bucket_3: 2473
Non-critical_ROB_Stalls_Percent_4_Bucket_3: 50560
Critical_ROB_Stalls_Percent_4_Bucket_4: 1
Non-critical_ROB_Stalls_Percent_4_Bucket_4: 21001
Critical_ROB_Stalls_Percent_4_Bucket_5: 0
Non-critical_ROB_Stalls_Percent_4_Bucket_5: 11443
Critical_ROB_Stalls_Percent_4_Bucket_6: 0
Non-critical_ROB_Stalls_Percent_4_Bucket_6: 20063
Critical_ROB_Stalls_Percent_5_Bucket_0: 2133
Non-critical_ROB_Stalls_Percent_5_Bucket_0: 2531444
Critical_ROB_Stalls_Percent_5_Bucket_1: 49116
Non-critical_ROB_Stalls_Percent_5_Bucket_1: 636124
Critical_ROB_Stalls_Percent_5_Bucket_2: 20107
Non-critical_ROB_Stalls_Percent_5_Bucket_2: 198243
Critical_ROB_Stalls_Percent_5_Bucket_3: 2473
Non-critical_ROB_Stalls_Percent_5_Bucket_3: 50560
Critical_ROB_Stalls_Percent_5_Bucket_4: 1
Non-critical_ROB_Stalls_Percent_5_Bucket_4: 21001
Critical_ROB_Stalls_Percent_5_Bucket_5: 0
Non-critical_ROB_Stalls_Percent_5_Bucket_5: 11443
Critical_ROB_Stalls_Percent_5_Bucket_6: 0
Non-critical_ROB_Stalls_Percent_5_Bucket_6: 20063
Critical_ROB_Stalls_Percent_6_Bucket_0: 2133
Non-critical_ROB_Stalls_Percent_6_Bucket_0: 2531444
Critical_ROB_Stalls_Percent_6_Bucket_1: 49116
Non-critical_ROB_Stalls_Percent_6_Bucket_1: 636124
Critical_ROB_Stalls_Percent_6_Bucket_2: 20107
Non-critical_ROB_Stalls_Percent_6_Bucket_2: 198243
Critical_ROB_Stalls_Percent_6_Bucket_3: 2473
Non-critical_ROB_Stalls_Percent_6_Bucket_3: 50560
Critical_ROB_Stalls_Percent_6_Bucket_4: 1
Non-critical_ROB_Stalls_Percent_6_Bucket_4: 21001
Critical_ROB_Stalls_Percent_6_Bucket_5: 0
Non-critical_ROB_Stalls_Percent_6_Bucket_5: 11443
Critical_ROB_Stalls_Percent_6_Bucket_6: 0
Non-critical_ROB_Stalls_Percent_6_Bucket_6: 20063
Critical_ROB_Stalls_Percent_7_Bucket_0: 2133
Non-critical_ROB_Stalls_Percent_7_Bucket_0: 2531444
Critical_ROB_Stalls_Percent_7_Bucket_1: 49116
Non-critical_ROB_Stalls_Percent_7_Bucket_1: 636124
Critical_ROB_Stalls_Percent_7_Bucket_2: 20107
Non-critical_ROB_Stalls_Percent_7_Bucket_2: 198243
Critical_ROB_Stalls_Percent_7_Bucket_3: 2473
Non-critical_ROB_Stalls_Percent_7_Bucket_3: 50560
Critical_ROB_Stalls_Percent_7_Bucket_4: 1
Non-critical_ROB_Stalls_Percent_7_Bucket_4: 21001
Critical_ROB_Stalls_Percent_7_Bucket_5: 0
Non-critical_ROB_Stalls_Percent_7_Bucket_5: 11443
Critical_ROB_Stalls_Percent_7_Bucket_6: 0
Non-critical_ROB_Stalls_Percent_7_Bucket_6: 20063
Critical_ROB_Stalls_Percent_8_Bucket_0: 2133
Non-critical_ROB_Stalls_Percent_8_Bucket_0: 2531444
Critical_ROB_Stalls_Percent_8_Bucket_1: 49116
Non-critical_ROB_Stalls_Percent_8_Bucket_1: 636124
Critical_ROB_Stalls_Percent_8_Bucket_2: 20107
Non-critical_ROB_Stalls_Percent_8_Bucket_2: 198243
Critical_ROB_Stalls_Percent_8_Bucket_3: 2473
Non-critical_ROB_Stalls_Percent_8_Bucket_3: 50560
Critical_ROB_Stalls_Percent_8_Bucket_4: 1
Non-critical_ROB_Stalls_Percent_8_Bucket_4: 21001
Critical_ROB_Stalls_Percent_8_Bucket_5: 0
Non-critical_ROB_Stalls_Percent_8_Bucket_5: 11443
Critical_ROB_Stalls_Percent_8_Bucket_6: 0
Non-critical_ROB_Stalls_Percent_8_Bucket_6: 20063
Average ROB occupancy Load Stall Begin: 36.3213
Average ROB occupancy Load Stall End: 44.2166
Min ROB occupancy Load Stall Begin: 1
Max ROB occupancy Load Stall Begin: 352
Min ROB occupancy Load Stall End: 1
Max ROB occupancy Load Stall End: 352
Average ROB occupancy Critical Load Stall Begin: 81.3531
Average ROB occupancy Critical Load Stall End: 86.6976
Min ROB occupancy Critical Load Stall Begin: 3
Max ROB occupancy Critical Load Stall Begin: 352
Min ROB occupancy Critical Load Stall End: 3
Max ROB occupancy Critical Load Stall End: 352
 ROB Load Stall Begin Bucket Count 0: 2768747
 ROB Load Stall End Bucket Count 0: 2533577
 ROB Critical Load Stall Begin Bucket Count 0: 8589
 ROB Critical Load Stall End Bucket Count 0: 7586
 ROB Load Stall Begin Bucket Count 1: 524496
 ROB Load Stall End Bucket Count 1: 685240
 ROB Critical Load Stall Begin Bucket Count 1: 6834
 ROB Critical Load Stall End Bucket Count 1: 7299
 ROB Load Stall Begin Bucket Count 2: 162312
 ROB Load Stall End Bucket Count 2: 218350
 ROB Critical Load Stall Begin Bucket Count 2: 7938
 ROB Critical Load Stall End Bucket Count 2: 8253
 ROB Load Stall Begin Bucket Count 3: 40255
 ROB Load Stall End Bucket Count 3: 53033
 ROB Critical Load Stall Begin Bucket Count 3: 2075
 ROB Critical Load Stall End Bucket Count 3: 2231
 ROB Load Stall Begin Bucket Count 4: 17921
 ROB Load Stall End Bucket Count 4: 21002
 ROB Critical Load Stall Begin Bucket Count 4: 320
 ROB Critical Load Stall End Bucket Count 4: 353
 ROB Load Stall Begin Bucket Count 5: 10482
 ROB Load Stall End Bucket Count 5: 11443
 ROB Critical Load Stall Begin Bucket Count 5: 59
 ROB Critical Load Stall End Bucket Count 5: 71
 ROB Load Stall Begin Bucket Count 6: 18495
 ROB Load Stall End Bucket Count 6: 20063
 ROB Critical Load Stall Begin Bucket Count 6: 47
 ROB Critical Load Stall End Bucket Count 6: 71
PIST Tag Read Accesses: 0
PIST Read Accesses: 0
PIST Tag Write Accesses: 0
PIST Write Accesses: 0
Criticality detector called times: 0
Max global_stall_cycles_count: 0
Threshold Modified: 0 times, factor: 0
Sturdy critical IP cache stats: 
 Unused entries: 0
CIC Tag Read Accesses: 0
CIC Read Accesses: 0
CIC Tag Write Accesses: 0
CIC Write Accesses: 0
Wobbly critical IP cache stats: 
 Unused entries: 0
CIC Tag Read Accesses: 149901852
CIC Read Accesses: 0
CIC Tag Write Accesses: 227387
CIC Write Accesses: 0
ITLB TOTAL     ACCESS:   10093619  HIT:    9427780  MISS:     665839  HIT %:    93.4034  MISS %:    6.59663   MPKI: 13.3168
ITLB LOAD TRANSLATION ACCESS:    8098001  HIT:    8003546  MISS:      94455  HIT %:    98.8336  MISS %:     1.1664   MPKI: 1.8891
ITLB TRANSLATION FROM L1D PREFETCHER ACCESS:    1995618  HIT:    1424234  MISS:     571384  HIT %:    71.3681  MISS %:    28.6319   MPKI: 11.4277
ITLB PREFETCH  REQUESTED:          0  ISSUED:          0  USEFUL:     460420  USELESS:     110948
ITLB USEFUL LOAD PREFETCHES:     460420 PREFETCH ISSUED TO LOWER LEVEL:          0  ACCURACY: inf
ITLB TIMELY PREFETCHES:     460420 LATE PREFETCHES: 291 DROPPED PREFETCHES: 3961
ITLB PREFETCHES SAME FILL-ORIGIN LEVEL: 0 DIFFERENT FILL-ORIGIN LEVEL: 0
ITLB AVERAGE MISS LATENCY: 24368.2 cycles
ITLB RQ	ACCESS:   15145012	FORWARD:          0	MERGED:    5003946	TO_CACHE:   10141066

DTLB TOTAL     ACCESS:   11614449  HIT:   11140232  MISS:     474217  HIT %:     95.917  MISS %:    4.08299   MPKI: 9.48434
DTLB LOAD TRANSLATION ACCESS:   11614449  HIT:   11140232  MISS:     474217  HIT %:     95.917  MISS %:    4.08299   MPKI: 9.48434
DTLB PREFETCH  REQUESTED:          0  ISSUED:          0  USEFUL:          0  USELESS:          0
DTLB USEFUL LOAD PREFETCHES:          0 PREFETCH ISSUED TO LOWER LEVEL:          0  ACCURACY: -nan
DTLB TIMELY PREFETCHES:          0 LATE PREFETCHES: 0 DROPPED PREFETCHES: 0
DTLB PREFETCHES SAME FILL-ORIGIN LEVEL: 0 DIFFERENT FILL-ORIGIN LEVEL: 0
DTLB AVERAGE MISS LATENCY: 9.32278 cycles
DTLB RQ	ACCESS:   15077003	FORWARD:          0	MERGED:    3436465	TO_CACHE:   11640538

STLB TOTAL     ACCESS:    1166048  HIT:    1163920  MISS:       2128  HIT %:    99.8175  MISS %:   0.182497   MPKI: 0.04256
STLB LOAD TRANSLATION ACCESS:     568381  HIT:     566378  MISS:       2003  HIT %:    99.6476  MISS %:   0.352404   MPKI: 0.04006
STLB TRANSLATION FROM L1D PREFETCHER ACCESS:     597667  HIT:     597542  MISS:        125  HIT %:    99.9791  MISS %:  0.0209147   MPKI: 0.0025
STLB PREFETCH  REQUESTED:          0  ISSUED:          0  USEFUL:        113  USELESS:         11
STLB USEFUL LOAD PREFETCHES:        113 PREFETCH ISSUED TO LOWER LEVEL:          0  ACCURACY: inf
STLB TIMELY PREFETCHES:        113 LATE PREFETCHES: 0 DROPPED PREFETCHES: 3961
STLB PREFETCHES SAME FILL-ORIGIN LEVEL: 0 DIFFERENT FILL-ORIGIN LEVEL: 0
STLB AVERAGE MISS LATENCY: 75.985 cycles
STLB RQ	ACCESS:    1176536	FORWARD:          0	MERGED:       6527	TO_CACHE:    1170009

STLB Hit, L1D data hit: 0
STLB Hit, L2C data hit: 0
STLB Hit, LLC data hit: 0
STLB Hit, LLC data miss: 0
STLB STLB hints to L2: 0
L1D TOTAL     ACCESS:   14598635  HIT:   13572093  MISS:    1026542  HIT %:    92.9682  MISS %:    7.03177   MPKI: 20.5308
L1D LOAD      ACCESS:    8174727  HIT:    7447229  MISS:     727498  HIT %:    91.1006  MISS %:    8.89936   MPKI: 14.55
L1D RFO       ACCESS:    6398306  HIT:    6109575  MISS:     288731  HIT %:    95.4874  MISS %:    4.51262   MPKI: 5.77462
L1D PREFETCH  ACCESS:      25602  HIT:      15289  MISS:      10313  HIT %:     59.718  MISS %:     40.282   MPKI: 0.20626
L1D PREFETCH  REQUESTED:      65038  ISSUED:      65038  USEFUL:       5016  USELESS:       5317
L1D USEFUL LOAD PREFETCHES:       5016 PREFETCH ISSUED TO LOWER LEVEL:      16188  ACCURACY: 30.9859
L1D TIMELY PREFETCHES:       5016 LATE PREFETCHES: 5874 DROPPED PREFETCHES: 0
L1D PREFETCHES SAME FILL-ORIGIN LEVEL: 16188 DIFFERENT FILL-ORIGIN LEVEL: 0
L1D AVERAGE MISS LATENCY: 395423 cycles
L1D RQ	ACCESS:   11682931	FORWARD:          0	MERGED:    3337880	TO_CACHE:    8203970
L1D WQ	ACCESS:    6942496	FORWARD:     141081	MERGED:      69463	TO_CACHE:    6873033
L1D PQ	ACCESS:      32519	FORWARD:          0	MERGED:          0	TO_CACHE:      32519

L1D UNIQUE REGIONS ACCESSED: 0
L1D REGIONS CONFLICTS: 0
L1D Cross Page Prefetch Requests: 0
L1D Same Page Prefetch Requests: 305210
L1D ROI Sum of L1D PQ occupancy: 434887
L1D PREFETCHES PUSHED FROM L2C: 0
L1I TOTAL     ACCESS:   14995558  HIT:   10894290  MISS:    4101268  HIT %:    72.6501  MISS %:    27.3499   MPKI: 82.0254
L1I LOAD      ACCESS:    9543030  HIT:    9258803  MISS:     284227  HIT %:    97.0216  MISS %:    2.97837   MPKI: 5.68454
L1I PREFETCH  ACCESS:    5452528  HIT:    1635487  MISS:    3817041  HIT %:     29.995  MISS %:     70.005   MPKI: 76.3408
L1I PREFETCH  REQUESTED:    5712101  ISSUED:    5703437  USEFUL:    2599031  USELESS:    1217968
L1I USEFUL LOAD PREFETCHES:    2599031 PREFETCH ISSUED TO LOWER LEVEL:    3845877  ACCURACY: 67.5797
L1I TIMELY PREFETCHES:    2599031 LATE PREFETCHES: 28839 DROPPED PREFETCHES: 9358
L1I PREFETCHES SAME FILL-ORIGIN LEVEL: 3845877 DIFFERENT FILL-ORIGIN LEVEL: 0
L1I AVERAGE MISS LATENCY: 383096 cycles
L1I RQ	ACCESS:   13505764	FORWARD:          0	MERGED:    3938869	TO_CACHE:    9566895
L1I PQ	ACCESS:    5703437	FORWARD:          0	MERGED:     125320	TO_CACHE:    5578117

BTB TOTAL     ACCESS:    5988365  HIT:    3982732  MISS:    2005633  HIT %:    66.5078  MISS %:    33.4922   MPKI: 40.1127
BTB BRANCH_DIRECT_JUMP	ACCESS:     526631  HIT:     350330  MISS:     176301
BTB BRANCH_INDIRECT	ACCESS:     205902  HIT:     168509  MISS:      37393
BTB BRANCH_CONDITIONAL	ACCESS:    3029929  HIT:    2469491  MISS:     560438
BTB BRANCH_DIRECT_CALL	ACCESS:     938463  HIT:     531150  MISS:     407313
BTB BRANCH_INDIRECT_CALL	ACCESS:     174486  HIT:      95785  MISS:      78701
BTB BRANCH_RETURN	ACCESS:    1112954  HIT:     367467  MISS:     745487
BTB BRANCH_OTHER ACCESS:          0  HIT:          0  MISS:          0

L2C TOTAL     ACCESS:    5642249  HIT:    5175011  MISS:     467238  HIT %:    91.7189  MISS %:    8.28106   MPKI: 9.34476
L2C LOAD      ACCESS:     976919  HIT:     836996  MISS:     139923  HIT %:    85.6771  MISS %:    14.3229   MPKI: 2.79846
L2C DATA LOAD MPKI: 2.11388
L2C INSTRUCTION LOAD MPKI: 0.68458
L2C RFO       ACCESS:     288730  HIT:     231701  MISS:      57029  HIT %:    80.2483  MISS %:    19.7517   MPKI: 1.14058
L2C PREFETCH  ACCESS:    3862067  HIT:    3613897  MISS:     248170  HIT %:    93.5742  MISS %:    6.42583   MPKI: 4.9634
L2C DATA PREFETCH MPKI: 0.16482
L2C INSTRUCTION PREFETCH MPKI: 4.79858
L2C WRITEBACK ACCESS:     506901  HIT:     486553  MISS:      20348  HIT %:    95.9858  MISS %:     4.0142   MPKI: 0.40696
L2C LOAD TRANSLATION ACCESS:       2160  HIT:        571  MISS:       1589  HIT %:    26.4352  MISS %:    73.5648   MPKI: 0.03178
L2C TRANSLATION FROM L1D PREFETCHER ACCESS:       5472  HIT:       5293  MISS:        179  HIT %:    96.7288  MISS %:     3.2712   MPKI: 0.00358
L2C PREFETCH  REQUESTED:          0  ISSUED:          0  USEFUL:       6071  USELESS:     242659
L2C USEFUL LOAD PREFETCHES:       6071 PREFETCH ISSUED TO LOWER LEVEL:     248170  ACCURACY: 2.44631
L2C TIMELY PREFETCHES:       6071 LATE PREFETCHES: 0 DROPPED PREFETCHES: 0
L2C PREFETCHES SAME FILL-ORIGIN LEVEL: 0 DIFFERENT FILL-ORIGIN LEVEL: 0
L2C AVERAGE MISS LATENCY: 37.1205 cycles
L2C RQ	ACCESS:    1273374	FORWARD:          0	MERGED:          0	TO_CACHE:    1273281
L2C WQ	ACCESS:     506901	FORWARD:         93	MERGED:          0	TO_CACHE:     506901
L2C PQ	ACCESS:    3862065	FORWARD:          0	MERGED:          0	TO_CACHE:    3862065

L2C Instructions Evicting Data 101183
L2C Translations Evicting Data 1074
L2C Data Evicting Data 81076
L2C Instructions Evicting Instructions 172273
L2C Translations Evicting Instructions 677
L2C Data Evicting Instructions 88871
L2C Instructions Evicting Translations 702
L2C Translations Evicting Translations 17
L2C Data Evicting Translations 1017
L2C Dense regions hint from L2: 0
PSCL5 TOTAL     ACCESS:       6089  HIT:       6089  MISS:          0  HIT %:        100  MISS %:          0   MPKI: 0
PSCL5 LOAD TRANSLATION ACCESS:       2003  HIT:       2003  MISS:          0  HIT %:        100  MISS %:          0   MPKI: 0
PSCL5 TRANSLATION FROM L1D PREFETCHER ACCESS:       4086  HIT:       4086  MISS:          0  HIT %:        100  MISS %:          0   MPKI: 0
PSCL5 PREFETCH  REQUESTED:          0  ISSUED:          0  USEFUL:          0  USELESS:          0
PSCL5 USEFUL LOAD PREFETCHES:          0 PREFETCH ISSUED TO LOWER LEVEL:          0  ACCURACY: -nan
PSCL5 TIMELY PREFETCHES:          0 LATE PREFETCHES: 0 DROPPED PREFETCHES: 0
PSCL5 PREFETCHES SAME FILL-ORIGIN LEVEL: 0 DIFFERENT FILL-ORIGIN LEVEL: 0

PSCL4 TOTAL     ACCESS:       5761  HIT:       5742  MISS:         19  HIT %:    99.6702  MISS %:   0.329804   MPKI: 0.00038
PSCL4 LOAD TRANSLATION ACCESS:       1886  HIT:       1867  MISS:         19  HIT %:    98.9926  MISS %:    1.00742   MPKI: 0.00038
PSCL4 TRANSLATION FROM L1D PREFETCHER ACCESS:       3875  HIT:       3875  MISS:          0  HIT %:        100  MISS %:          0   MPKI: 0
PSCL4 PREFETCH  REQUESTED:          0  ISSUED:          0  USEFUL:          0  USELESS:          0
PSCL4 USEFUL LOAD PREFETCHES:          0 PREFETCH ISSUED TO LOWER LEVEL:          0  ACCURACY: -nan
PSCL4 TIMELY PREFETCHES:          0 LATE PREFETCHES: 0 DROPPED PREFETCHES: 0
PSCL4 PREFETCHES SAME FILL-ORIGIN LEVEL: 0 DIFFERENT FILL-ORIGIN LEVEL: 0

PSCL3 TOTAL     ACCESS:       5825  HIT:       5806  MISS:         19  HIT %:    99.6738  MISS %:    0.32618   MPKI: 0.00038
PSCL3 LOAD TRANSLATION ACCESS:       1950  HIT:       1931  MISS:         19  HIT %:    99.0256  MISS %:   0.974359   MPKI: 0.00038
PSCL3 TRANSLATION FROM L1D PREFETCHER ACCESS:       3875  HIT:       3875  MISS:          0  HIT %:        100  MISS %:          0   MPKI: 0
PSCL3 PREFETCH  REQUESTED:          0  ISSUED:          0  USEFUL:          0  USELESS:          0
PSCL3 USEFUL LOAD PREFETCHES:          0 PREFETCH ISSUED TO LOWER LEVEL:          0  ACCURACY: -nan
PSCL3 TIMELY PREFETCHES:          0 LATE PREFETCHES: 0 DROPPED PREFETCHES: 0
PSCL3 PREFETCHES SAME FILL-ORIGIN LEVEL: 0 DIFFERENT FILL-ORIGIN LEVEL: 0

PSCL2 TOTAL     ACCESS:       4853  HIT:       4712  MISS:        141  HIT %:    97.0946  MISS %:    2.90542   MPKI: 0.00282
PSCL2 LOAD TRANSLATION ACCESS:       2021  HIT:       1880  MISS:        141  HIT %:    93.0233  MISS %:    6.97674   MPKI: 0.00282
PSCL2 TRANSLATION FROM L1D PREFETCHER ACCESS:       2832  HIT:       2832  MISS:          0  HIT %:        100  MISS %:          0   MPKI: 0
PSCL2 PREFETCH  REQUESTED:          0  ISSUED:          0  USEFUL:          0  USELESS:          0
PSCL2 USEFUL LOAD PREFETCHES:          0 PREFETCH ISSUED TO LOWER LEVEL:          0  ACCURACY: -nan
PSCL2 TIMELY PREFETCHES:          0 LATE PREFETCHES: 0 DROPPED PREFETCHES: 0
PSCL2 PREFETCHES SAME FILL-ORIGIN LEVEL: 0 DIFFERENT FILL-ORIGIN LEVEL: 0

LLC TOTAL     ACCESS:     526992  HIT:     501682  MISS:      25310  HIT %:    95.1973  MISS %:    4.80273   MPKI: 0.5062
LLC LOAD      ACCESS:     139923  HIT:     133928  MISS:       5995  HIT %:    95.7155  MISS %:     4.2845   MPKI: 0.1199
LLC RFO       ACCESS:      57028  HIT:      42431  MISS:      14597  HIT %:    74.4038  MISS %:    25.5962   MPKI: 0.29194
LLC PREFETCH  ACCESS:     248170  HIT:     243854  MISS:       4316  HIT %:    98.2609  MISS %:    1.73913   MPKI: 0.08632
LLC WRITEBACK ACCESS:      80103  HIT:      79826  MISS:        277  HIT %:    99.6542  MISS %:   0.345805   MPKI: 0.00554
LLC LOAD TRANSLATION ACCESS:       1589  HIT:       1472  MISS:        117  HIT %:    92.6369  MISS %:    7.36312   MPKI: 0.00234
LLC TRANSLATION FROM L1D PREFETCHER ACCESS:        179  HIT:        171  MISS:          8  HIT %:    95.5307  MISS %:    4.46927   MPKI: 0.00016
LLC PREFETCH  REQUESTED:          0  ISSUED:          0  USEFUL:        649  USELESS:       4368
LLC USEFUL LOAD PREFETCHES:        649 PREFETCH ISSUED TO LOWER LEVEL:       4316  ACCURACY: 15.0371
LLC TIMELY PREFETCHES:        649 LATE PREFETCHES: 0 DROPPED PREFETCHES: 0
LLC PREFETCHES SAME FILL-ORIGIN LEVEL: 0 DIFFERENT FILL-ORIGIN LEVEL: 0
LLC AVERAGE MISS LATENCY: 154.076 cycles
LLC RQ	ACCESS:     198720	FORWARD:          0	MERGED:          0	TO_CACHE:     198719
LLC WQ	ACCESS:      80103	FORWARD:          1	MERGED:          0	TO_CACHE:      80103
LLC PQ	ACCESS:     248170	FORWARD:          0	MERGED:          0	TO_CACHE:     248170

LLC Dense regions hint to LLC: 0

RAW hits: 951797
Loads Generated: 12634728
Loads sent to L1D: 11682931
Stores Generated: 6942481
Stores sent to L1D: 6942496
Major fault: 0 Minor fault: 2582
Allocated PAGES: 2582
I-Shadow cache 408 bytes
Touched + WorthPF tables 6144 bytes 
MMA filter 174 bytes 
FNL filter 272 bytes 
TOTAL PREFETCHER STORAGE SIZE: 25174 bytes
CPU 0 L1I next line prefetcher final stats

stream: 
stream:times selected: 418704
stream:pref_filled: 52642
stream:pref_useful: 13067
stream:pref_late: 6545
stream:misses: 2937
stream:misses_by_poll: 0

CS: 
CS:times selected: 56413
CS:pref_filled: 25752
CS:pref_useful: 16584
CS:pref_late: 3574
CS:misses: 2570
CS:misses_by_poll: 3

CPLX: 
CPLX:times selected: 361638
CPLX:pref_filled: 7864
CPLX:pref_useful: 2403
CPLX:pref_late: 698
CPLX:misses: 31434
CPLX:misses_by_poll: 0

NL_L1: 
NL:times selected: 2742
NL:pref_filled: 168
NL:pref_useful: 17
NL:pref_late: 6
NL:misses: 43
NL:misses_by_poll: 0

total selections: 839497
total_filled: 10313
total_useful: 5016
total_late: 12596
total_polluted: 3
total_misses_after_warmup: 3498
conflicts: 99
Degree Incremented Times: 0
Degree Decremented Times: 30000

L1 IP Table Write Accesses: 50554
L1 IP Table Read Accesses: 50455
L1 RST Write Accesses: 28881
L1 RST Read Accesses: 57762
L1 CSPT Write Accesses: 28881
L1 CSPT Read Accesses: 34416
L1 RR Filter Tag Write Accesses: 32519
L1 RR Filter Tag Read Accesses: 3102780
L1 IP Table Tag Write Accesses: 51018
L1 IP Table Tag Read Accesses: 51018
L1 RST Tag Write Accesses: 0
L1 RST Tag Read Accesses: 244624
L1 RR Filter Write Accesses: 0
L1 RR Filter Read Accesses: 99563
test: 45108

DRAM Statistics
 CHANNEL 0
 RQ ROW_BUFFER_HIT:       9596  ROW_BUFFER_MISS:      15436
 DBUS_CONGESTED:         24
 WQ ROW_BUFFER_HIT:       1463  ROW_BUFFER_MISS:      12074  FULL:          0

 AVG_CONGESTED_CYCLE: 3
 All warmup complete: 2
Channel 0 Bank busy for read cycles: 0
Channel 0 Bank busy for write cycles: 0
Channel 0
Rank 0
0banks busy for read cycles: 79386205
0banks busy for write cycles: 2792
1banks busy for read cycles: 807847
1banks busy for write cycles: 363238
2banks busy for read cycles: 200299
2banks busy for write cycles: 100870
3banks busy for read cycles: 118066
3banks busy for write cycles: 71610
4banks busy for read cycles: 32299
4banks busy for write cycles: 54659
5banks busy for read cycles: 27330
5banks busy for write cycles: 53965
6banks busy for read cycles: 30376
6banks busy for write cycles: 54827
7banks busy for read cycles: 32335
7banks busy for write cycles: 54097
8banks busy for read cycles: 71052
8banks busy for write cycles: 97605

CPU 0 Branch Prediction Accuracy: 99.8082% MPKI: 0.35064 Average ROB Occupancy at Mispredict: 70.5303
Branch types
NOT_BRANCH: 40857278 81.7146%
BRANCH_DIRECT_JUMP: 526631 1.05326%
BRANCH_INDIRECT: 205902 0.411804%
BRANCH_CONDITIONAL: 6184020 12.368%
BRANCH_DIRECT_CALL: 938463 1.87693%
BRANCH_INDIRECT_CALL: 174486 0.348972%
BRANCH_RETURN: 1112954 2.22591%
BRANCH_OTHER: 0 0%

DRAM PAGES: 1048576
Allocated PAGES: 2582
