Initialize SIGNATURE TABLE
ST_SET: 1
ST_WAY: 256
ST_TAG_BIT: 16
ST_TAG_MASK: ffff

Initialize PATTERN TABLE
PT_SET: 512
PT_WAY: 4
SIG_DELTA_BIT: 7
C_SIG_BIT: 4
C_DELTA_BIT: 4

Initialize PREFETCH FILTER
FILTER_SET: 1024

*** ChampSim Multicore Out-of-Order Simulator ***

Warmup Instructions: 50000000
Simulation Instructions: 50000000
Number of CPUs: 1
LLC sets: 2048
LLC ways: 16
Off-chip DRAM Size: 4096 MB Channels: 1 Width: 64-bit Data Rate: 6400 MT/s
CPU 0 runs ../IPC-traces//server_030.champsimtrace.xz
.xz
BTB has LRU replacement policy
ITLB has LRU replacement policy
DTLB has LRU replacement policy
STLB has LRU replacement policy
CPU 0 L1I next line prefetcher
L1I has LRU replacement policy
L1D has LRU replacement policy
Initialize SRRIP state for L2C
Initialize DRRIP state for LLC
Heartbeat CPU 0 instructions: 10000003 cycles: 2887289 heartbeat IPC: 3.46346 cumulative IPC: 3.46346 (Simulation time: 0 hr 3 min 14 sec) 
Heartbeat CPU 0 instructions: 20000003 cycles: 5770176 heartbeat IPC: 3.46874 cumulative IPC: 3.4661 (Simulation time: 0 hr 5 min 56 sec) 
Heartbeat CPU 0 instructions: 30000003 cycles: 8653169 heartbeat IPC: 3.46862 cumulative IPC: 3.46694 (Simulation time: 0 hr 8 min 40 sec) 
Heartbeat CPU 0 instructions: 40000001 cycles: 11536775 heartbeat IPC: 3.46788 cumulative IPC: 3.46717 (Simulation time: 0 hr 11 min 9 sec) 
Heartbeat CPU 0 instructions: 50000002 cycles: 14421179 heartbeat IPC: 3.46692 cumulative IPC: 3.46712 (Simulation time: 0 hr 13 min 21 sec) 

Warmup complete CPU 0 instructions: 50000002 cycles: 14421179 (Simulation time: 0 hr 13 min 21 sec) 

Heartbeat CPU 0 instructions: 60000000 cycles: 30438848 heartbeat IPC: 0.62431 cumulative IPC: 0.62431 (Simulation time: 0 hr 15 min 55 sec) 
Heartbeat CPU 0 instructions: 70000002 cycles: 46477289 heartbeat IPC: 0.623502 cumulative IPC: 0.623906 (Simulation time: 0 hr 18 min 28 sec) 
Heartbeat CPU 0 instructions: 80000001 cycles: 62395258 heartbeat IPC: 0.628221 cumulative IPC: 0.625338 (Simulation time: 0 hr 21 min 4 sec) 
*** Reached end of trace for Core: 0 Repeating trace: ../IPC-traces//server_030.champsimtrace.xz
Heartbeat CPU 0 instructions: 90000002 cycles: 78367211 heartbeat IPC: 0.626098 cumulative IPC: 0.625528 (Simulation time: 0 hr 23 min 36 sec) 
Heartbeat CPU 0 instructions: 100000000 cycles: 94225090 heartbeat IPC: 0.630601 cumulative IPC: 0.626536 (Simulation time: 0 hr 27 min 4 sec) 
Finished CPU 0 instructions: 50000002 cycles: 79803912 cumulative IPC: 0.626536 (Simulation time: 0 hr 27 min 4 sec) 

ChampSim completed all CPUs

Region of Interest Statistics

CPU 0 cumulative IPC: 0.626536 instructions: 50000002 cycles: 79803912

CPU 0 Average Load ROB stall cycles: 1.9427e+07
CPU 0 Fraction of times ROB stalled by Loads: 35.7147
CPU 0 Percentage of Load stall cycles in Total stall cycles: 2.77249e+08
Issued all: 28207797
Issued LT all: 22302970
rob_not_full_when_issued_lt_all: 22256991
Issued LT one: 17392398
rob_not_full_when_issued_lt_one: 17353627
FVP critical_dynamic_instances_0: 1569142
FVP unique_critical_ips_0: 4454
 Total stall cycles: 67242235
 Total load stall cycles: 186428264329438
Unique Load IPs: 12305
CPU 0 NUM of IPS identified critical: 0
CPU 0 Num of Load IPs stalling ROB: 0
Threshold modification factor: 0
Trouble in retire width: -nan
MaC = Marked as critical.
lt_50_percent_before_Mac: 0
gt_90_percent_before_Mac: 0
gt_75_percent_before_Mac: 0
gt_50_percent_before_Mac: 0
stall_proportion_bin_same_before_after: 0
stall_proportion_bin_lower_before_after: 0
stall_proportion_bin_upper_before_after: 0
average_stall_proportion_before: -nan
average_stall_proportion_after: -nan
Critical IP stalls, total frequency: 0
Non-critical IP stalls, total frequency: 0
Total Freq all stalling IPs: 0
Critical_IP_Detector_Accuracy_70: 0.000224517
Critical_IP_Detector_Accuracy_80: 0.000224517
Critical_IP_Detector_Accuracy_90: 0.000224517
Critical_IP_Detector_Coverage_70: 1
Critical_IP_Detector_Coverage_80: 1
Critical_IP_Detector_Coverage_90: 1
stat_90_percent_critical_ip_stalls_freq: 148905
stat_90_percent_non_critical_ip_stalls_freq: 18446744073709402711
AVERAGE_ROB_Occupancy_90_Percent_Critical_IP_Stalls: 33.2736
AVERAGE_ROB_Occupancy_90_Percent_Non_Critical_IP_Stalls: 7.74355e-12
Critical_IP_ROB_Stalls_Bucket_0: 0
Non-critical_IP_ROB_Stalls_Bucket_0: 2452007
Critical_IP_ROB_Stalls_Bucket_1: 0
Non-critical_IP_ROB_Stalls_Bucket_1: 696778
Critical_IP_ROB_Stalls_Bucket_2: 0
Non-critical_IP_ROB_Stalls_Bucket_2: 210656
Critical_IP_ROB_Stalls_Bucket_3: 0
Non-critical_IP_ROB_Stalls_Bucket_3: 45489
Critical_IP_ROB_Stalls_Bucket_4: 0
Non-critical_IP_ROB_Stalls_Bucket_4: 11104
Critical_IP_ROB_Stalls_Bucket_5: 0
Non-critical_IP_ROB_Stalls_Bucket_5: 5329
Critical_IP_ROB_Stalls_Bucket_6: 0
Non-critical_IP_ROB_Stalls_Bucket_6: 5943
0 => IPs accounting for >50 percent of stalls, 1 => 55, 2 => 60, 3 => 65 and so on till 90.
percent50: inf num IPs:  1
percent55: inf num IPs: 1
percent60: inf num IPs: 1
percent65: inf num IPs: 1
percent70: inf num IPs: 1
percent75: inf num IPs: 1
percent80: inf num IPs: 1
percent85: inf num IPs: 1
percent90: inf num IPs: 1
Critical_ROB_Stalls_Percent_0_Bucket_0: 146347
Non-critical_ROB_Stalls_Percent_0_Bucket_0: 2305660
Critical_ROB_Stalls_Percent_0_Bucket_1: 2535
Non-critical_ROB_Stalls_Percent_0_Bucket_1: 694243
Critical_ROB_Stalls_Percent_0_Bucket_2: 14
Non-critical_ROB_Stalls_Percent_0_Bucket_2: 210642
Critical_ROB_Stalls_Percent_0_Bucket_3: 9
Non-critical_ROB_Stalls_Percent_0_Bucket_3: 45480
Critical_ROB_Stalls_Percent_0_Bucket_4: 0
Non-critical_ROB_Stalls_Percent_0_Bucket_4: 11104
Critical_ROB_Stalls_Percent_0_Bucket_5: 0
Non-critical_ROB_Stalls_Percent_0_Bucket_5: 5329
Critical_ROB_Stalls_Percent_0_Bucket_6: 0
Non-critical_ROB_Stalls_Percent_0_Bucket_6: 5943
Critical_ROB_Stalls_Percent_1_Bucket_0: 146347
Non-critical_ROB_Stalls_Percent_1_Bucket_0: 2305660
Critical_ROB_Stalls_Percent_1_Bucket_1: 2535
Non-critical_ROB_Stalls_Percent_1_Bucket_1: 694243
Critical_ROB_Stalls_Percent_1_Bucket_2: 14
Non-critical_ROB_Stalls_Percent_1_Bucket_2: 210642
Critical_ROB_Stalls_Percent_1_Bucket_3: 9
Non-critical_ROB_Stalls_Percent_1_Bucket_3: 45480
Critical_ROB_Stalls_Percent_1_Bucket_4: 0
Non-critical_ROB_Stalls_Percent_1_Bucket_4: 11104
Critical_ROB_Stalls_Percent_1_Bucket_5: 0
Non-critical_ROB_Stalls_Percent_1_Bucket_5: 5329
Critical_ROB_Stalls_Percent_1_Bucket_6: 0
Non-critical_ROB_Stalls_Percent_1_Bucket_6: 5943
Critical_ROB_Stalls_Percent_2_Bucket_0: 146347
Non-critical_ROB_Stalls_Percent_2_Bucket_0: 2305660
Critical_ROB_Stalls_Percent_2_Bucket_1: 2535
Non-critical_ROB_Stalls_Percent_2_Bucket_1: 694243
Critical_ROB_Stalls_Percent_2_Bucket_2: 14
Non-critical_ROB_Stalls_Percent_2_Bucket_2: 210642
Critical_ROB_Stalls_Percent_2_Bucket_3: 9
Non-critical_ROB_Stalls_Percent_2_Bucket_3: 45480
Critical_ROB_Stalls_Percent_2_Bucket_4: 0
Non-critical_ROB_Stalls_Percent_2_Bucket_4: 11104
Critical_ROB_Stalls_Percent_2_Bucket_5: 0
Non-critical_ROB_Stalls_Percent_2_Bucket_5: 5329
Critical_ROB_Stalls_Percent_2_Bucket_6: 0
Non-critical_ROB_Stalls_Percent_2_Bucket_6: 5943
Critical_ROB_Stalls_Percent_3_Bucket_0: 146347
Non-critical_ROB_Stalls_Percent_3_Bucket_0: 2305660
Critical_ROB_Stalls_Percent_3_Bucket_1: 2535
Non-critical_ROB_Stalls_Percent_3_Bucket_1: 694243
Critical_ROB_Stalls_Percent_3_Bucket_2: 14
Non-critical_ROB_Stalls_Percent_3_Bucket_2: 210642
Critical_ROB_Stalls_Percent_3_Bucket_3: 9
Non-critical_ROB_Stalls_Percent_3_Bucket_3: 45480
Critical_ROB_Stalls_Percent_3_Bucket_4: 0
Non-critical_ROB_Stalls_Percent_3_Bucket_4: 11104
Critical_ROB_Stalls_Percent_3_Bucket_5: 0
Non-critical_ROB_Stalls_Percent_3_Bucket_5: 5329
Critical_ROB_Stalls_Percent_3_Bucket_6: 0
Non-critical_ROB_Stalls_Percent_3_Bucket_6: 5943
Critical_ROB_Stalls_Percent_4_Bucket_0: 146347
Non-critical_ROB_Stalls_Percent_4_Bucket_0: 2305660
Critical_ROB_Stalls_Percent_4_Bucket_1: 2535
Non-critical_ROB_Stalls_Percent_4_Bucket_1: 694243
Critical_ROB_Stalls_Percent_4_Bucket_2: 14
Non-critical_ROB_Stalls_Percent_4_Bucket_2: 210642
Critical_ROB_Stalls_Percent_4_Bucket_3: 9
Non-critical_ROB_Stalls_Percent_4_Bucket_3: 45480
Critical_ROB_Stalls_Percent_4_Bucket_4: 0
Non-critical_ROB_Stalls_Percent_4_Bucket_4: 11104
Critical_ROB_Stalls_Percent_4_Bucket_5: 0
Non-critical_ROB_Stalls_Percent_4_Bucket_5: 5329
Critical_ROB_Stalls_Percent_4_Bucket_6: 0
Non-critical_ROB_Stalls_Percent_4_Bucket_6: 5943
Critical_ROB_Stalls_Percent_5_Bucket_0: 146347
Non-critical_ROB_Stalls_Percent_5_Bucket_0: 2305660
Critical_ROB_Stalls_Percent_5_Bucket_1: 2535
Non-critical_ROB_Stalls_Percent_5_Bucket_1: 694243
Critical_ROB_Stalls_Percent_5_Bucket_2: 14
Non-critical_ROB_Stalls_Percent_5_Bucket_2: 210642
Critical_ROB_Stalls_Percent_5_Bucket_3: 9
Non-critical_ROB_Stalls_Percent_5_Bucket_3: 45480
Critical_ROB_Stalls_Percent_5_Bucket_4: 0
Non-critical_ROB_Stalls_Percent_5_Bucket_4: 11104
Critical_ROB_Stalls_Percent_5_Bucket_5: 0
Non-critical_ROB_Stalls_Percent_5_Bucket_5: 5329
Critical_ROB_Stalls_Percent_5_Bucket_6: 0
Non-critical_ROB_Stalls_Percent_5_Bucket_6: 5943
Critical_ROB_Stalls_Percent_6_Bucket_0: 146347
Non-critical_ROB_Stalls_Percent_6_Bucket_0: 2305660
Critical_ROB_Stalls_Percent_6_Bucket_1: 2535
Non-critical_ROB_Stalls_Percent_6_Bucket_1: 694243
Critical_ROB_Stalls_Percent_6_Bucket_2: 14
Non-critical_ROB_Stalls_Percent_6_Bucket_2: 210642
Critical_ROB_Stalls_Percent_6_Bucket_3: 9
Non-critical_ROB_Stalls_Percent_6_Bucket_3: 45480
Critical_ROB_Stalls_Percent_6_Bucket_4: 0
Non-critical_ROB_Stalls_Percent_6_Bucket_4: 11104
Critical_ROB_Stalls_Percent_6_Bucket_5: 0
Non-critical_ROB_Stalls_Percent_6_Bucket_5: 5329
Critical_ROB_Stalls_Percent_6_Bucket_6: 0
Non-critical_ROB_Stalls_Percent_6_Bucket_6: 5943
Critical_ROB_Stalls_Percent_7_Bucket_0: 146347
Non-critical_ROB_Stalls_Percent_7_Bucket_0: 2305660
Critical_ROB_Stalls_Percent_7_Bucket_1: 2535
Non-critical_ROB_Stalls_Percent_7_Bucket_1: 694243
Critical_ROB_Stalls_Percent_7_Bucket_2: 14
Non-critical_ROB_Stalls_Percent_7_Bucket_2: 210642
Critical_ROB_Stalls_Percent_7_Bucket_3: 9
Non-critical_ROB_Stalls_Percent_7_Bucket_3: 45480
Critical_ROB_Stalls_Percent_7_Bucket_4: 0
Non-critical_ROB_Stalls_Percent_7_Bucket_4: 11104
Critical_ROB_Stalls_Percent_7_Bucket_5: 0
Non-critical_ROB_Stalls_Percent_7_Bucket_5: 5329
Critical_ROB_Stalls_Percent_7_Bucket_6: 0
Non-critical_ROB_Stalls_Percent_7_Bucket_6: 5943
Critical_ROB_Stalls_Percent_8_Bucket_0: 146347
Non-critical_ROB_Stalls_Percent_8_Bucket_0: 2305660
Critical_ROB_Stalls_Percent_8_Bucket_1: 2535
Non-critical_ROB_Stalls_Percent_8_Bucket_1: 694243
Critical_ROB_Stalls_Percent_8_Bucket_2: 14
Non-critical_ROB_Stalls_Percent_8_Bucket_2: 210642
Critical_ROB_Stalls_Percent_8_Bucket_3: 9
Non-critical_ROB_Stalls_Percent_8_Bucket_3: 45480
Critical_ROB_Stalls_Percent_8_Bucket_4: 0
Non-critical_ROB_Stalls_Percent_8_Bucket_4: 11104
Critical_ROB_Stalls_Percent_8_Bucket_5: 0
Non-critical_ROB_Stalls_Percent_8_Bucket_5: 5329
Critical_ROB_Stalls_Percent_8_Bucket_6: 0
Non-critical_ROB_Stalls_Percent_8_Bucket_6: 5943
Average ROB occupancy Load Stall Begin: 34.5936
Average ROB occupancy Load Stall End: 43.1236
Min ROB occupancy Load Stall Begin: 1
Max ROB occupancy Load Stall Begin: 352
Min ROB occupancy Load Stall End: 1
Max ROB occupancy Load Stall End: 352
Average ROB occupancy Critical Load Stall Begin: -nan
Average ROB occupancy Critical Load Stall End: -nan
Min ROB occupancy Critical Load Stall Begin: 400
Max ROB occupancy Critical Load Stall Begin: 0
Min ROB occupancy Critical Load Stall End: 400
Max ROB occupancy Critical Load Stall End: 0
 ROB Load Stall Begin Bucket Count 0: 2704261
 ROB Load Stall End Bucket Count 0: 2452007
 ROB Critical Load Stall Begin Bucket Count 0: 0
 ROB Critical Load Stall End Bucket Count 0: 0
 ROB Load Stall Begin Bucket Count 1: 519190
 ROB Load Stall End Bucket Count 1: 696778
 ROB Critical Load Stall Begin Bucket Count 1: 0
 ROB Critical Load Stall End Bucket Count 1: 0
 ROB Load Stall Begin Bucket Count 2: 149881
 ROB Load Stall End Bucket Count 2: 210656
 ROB Critical Load Stall Begin Bucket Count 2: 0
 ROB Critical Load Stall End Bucket Count 2: 0
 ROB Load Stall Begin Bucket Count 3: 35244
 ROB Load Stall End Bucket Count 3: 45489
 ROB Critical Load Stall Begin Bucket Count 3: 0
 ROB Critical Load Stall End Bucket Count 3: 0
 ROB Load Stall Begin Bucket Count 4: 8828
 ROB Load Stall End Bucket Count 4: 11104
 ROB Critical Load Stall Begin Bucket Count 4: 0
 ROB Critical Load Stall End Bucket Count 4: 0
 ROB Load Stall Begin Bucket Count 5: 4962
 ROB Load Stall End Bucket Count 5: 5329
 ROB Critical Load Stall Begin Bucket Count 5: 0
 ROB Critical Load Stall End Bucket Count 5: 0
 ROB Load Stall Begin Bucket Count 6: 4940
 ROB Load Stall End Bucket Count 6: 5943
 ROB Critical Load Stall Begin Bucket Count 6: 0
 ROB Critical Load Stall End Bucket Count 6: 0
PIST Tag Read Accesses: 0
PIST Read Accesses: 0
PIST Tag Write Accesses: 0
PIST Write Accesses: 0
Criticality detector called times: 0
Max global_stall_cycles_count: 0
Threshold Modified: 0 times, factor: 0
ITLB TOTAL     ACCESS:   10476670  HIT:    9732208  MISS:     744462  HIT %:    92.8941  MISS %:     7.1059   MPKI: 14.8892
ITLB LOAD TRANSLATION ACCESS:    8340516  HIT:    8290883  MISS:      49633  HIT %:    99.4049  MISS %:   0.595083   MPKI: 0.99266
ITLB TRANSLATION FROM L1D PREFETCHER ACCESS:    2136154  HIT:    1441325  MISS:     694829  HIT %:    67.4729  MISS %:    32.5271   MPKI: 13.8966
ITLB PREFETCH  REQUESTED:          0  ISSUED:          0  USEFUL:     558932  USELESS:     135895
ITLB USEFUL LOAD PREFETCHES:     558932 PREFETCH ISSUED TO LOWER LEVEL:          0  ACCURACY: inf
ITLB TIMELY PREFETCHES:     558932 LATE PREFETCHES: 142 DROPPED PREFETCHES: 5121
ITLB PREFETCHES SAME FILL-ORIGIN LEVEL: 0 DIFFERENT FILL-ORIGIN LEVEL: 0
ITLB AVERAGE MISS LATENCY: 7366.48 cycles
ITLB RQ	ACCESS:   15807136	FORWARD:          0	MERGED:    5289347	TO_CACHE:   10517789

DTLB TOTAL     ACCESS:   11227141  HIT:   10701812  MISS:     525329  HIT %:    95.3209  MISS %:     4.6791   MPKI: 10.5066
DTLB LOAD TRANSLATION ACCESS:   11227141  HIT:   10701812  MISS:     525329  HIT %:    95.3209  MISS %:     4.6791   MPKI: 10.5066
DTLB PREFETCH  REQUESTED:          0  ISSUED:          0  USEFUL:          0  USELESS:          0
DTLB USEFUL LOAD PREFETCHES:          0 PREFETCH ISSUED TO LOWER LEVEL:          0  ACCURACY: -nan
DTLB TIMELY PREFETCHES:          0 LATE PREFETCHES: 0 DROPPED PREFETCHES: 0
DTLB PREFETCHES SAME FILL-ORIGIN LEVEL: 0 DIFFERENT FILL-ORIGIN LEVEL: 0
DTLB AVERAGE MISS LATENCY: 9.35961 cycles
DTLB RQ	ACCESS:   14751731	FORWARD:          0	MERGED:    3496353	TO_CACHE:   11255378

STLB TOTAL     ACCESS:    1269791  HIT:    1260530  MISS:       9261  HIT %:    99.2707  MISS %:   0.729333   MPKI: 0.18522
STLB LOAD TRANSLATION ACCESS:     574820  HIT:     569594  MISS:       5226  HIT %:    99.0908  MISS %:   0.909154   MPKI: 0.10452
STLB TRANSLATION FROM L1D PREFETCHER ACCESS:     694971  HIT:     690936  MISS:       4035  HIT %:    99.4194  MISS %:     0.5806   MPKI: 0.0807
STLB PREFETCH  REQUESTED:          0  ISSUED:          0  USEFUL:       2742  USELESS:       1295
STLB USEFUL LOAD PREFETCHES:       2742 PREFETCH ISSUED TO LOWER LEVEL:          0  ACCURACY: inf
STLB TIMELY PREFETCHES:       2742 LATE PREFETCHES: 0 DROPPED PREFETCHES: 5121
STLB PREFETCHES SAME FILL-ORIGIN LEVEL: 0 DIFFERENT FILL-ORIGIN LEVEL: 0
STLB AVERAGE MISS LATENCY: 29.8415 cycles
STLB RQ	ACCESS:    1274912	FORWARD:          0	MERGED:          0	TO_CACHE:    1274912

STLB Hit, L1D data hit: 0
STLB Hit, L2C data hit: 0
STLB Hit, LLC data hit: 0
STLB Hit, LLC data miss: 0
STLB STLB hints to L2: 0
L1D TOTAL     ACCESS:   14227456  HIT:   12765580  MISS:    1461876  HIT %:     89.725  MISS %:     10.275   MPKI: 29.2375
L1D LOAD      ACCESS:    7960753  HIT:    6808195  MISS:    1152558  HIT %:     85.522  MISS %:     14.478   MPKI: 23.0512
L1D RFO       ACCESS:    6266703  HIT:    5957385  MISS:     309318  HIT %:    95.0641  MISS %:     4.9359   MPKI: 6.18636
L1D PREFETCH  REQUESTED:          0  ISSUED:          0  USEFUL:          0  USELESS:          0
L1D USEFUL LOAD PREFETCHES:          0 PREFETCH ISSUED TO LOWER LEVEL:          0  ACCURACY: -nan
L1D TIMELY PREFETCHES:          0 LATE PREFETCHES: 0 DROPPED PREFETCHES: 0
L1D PREFETCHES SAME FILL-ORIGIN LEVEL: 0 DIFFERENT FILL-ORIGIN LEVEL: 0
L1D AVERAGE MISS LATENCY: 18.877 cycles
L1D RQ	ACCESS:   11310642	FORWARD:          0	MERGED:    3165600	TO_CACHE:    7997318
L1D WQ	ACCESS:    6823740	FORWARD:     147724	MERGED:      69327	TO_CACHE:    6754413

L1D UNIQUE REGIONS ACCESSED: 0
L1D REGIONS CONFLICTS: 0
L1D Cross Page Prefetch Requests: 0
L1D Same Page Prefetch Requests: 0
L1D ROI Sum of L1D PQ occupancy: 0
L1D PREFETCHES PUSHED FROM L2C: 0
L1I TOTAL     ACCESS:   15715951  HIT:   11433938  MISS:    4282013  HIT %:    72.7537  MISS %:    27.2463   MPKI: 85.6403
L1I LOAD      ACCESS:    9805493  HIT:    9698971  MISS:     106522  HIT %:    98.9136  MISS %:    1.08635   MPKI: 2.13044
L1I PREFETCH  ACCESS:    5910458  HIT:    1734967  MISS:    4175491  HIT %:    29.3542  MISS %:    70.6458   MPKI: 83.5098
L1I PREFETCH  REQUESTED:    6137745  ISSUED:    6120942  USEFUL:    2955804  USELESS:    1219687
L1I USEFUL LOAD PREFETCHES:    2955804 PREFETCH ISSUED TO LOWER LEVEL:    4193535  ACCURACY: 70.4848
L1I TIMELY PREFETCHES:    2955804 LATE PREFETCHES: 15252 DROPPED PREFETCHES: 11562
L1I PREFETCHES SAME FILL-ORIGIN LEVEL: 4193535 DIFFERENT FILL-ORIGIN LEVEL: 0
L1I AVERAGE MISS LATENCY: 195179 cycles
L1I RQ	ACCESS:   13556811	FORWARD:          0	MERGED:    3739937	TO_CACHE:    9816874
L1I PQ	ACCESS:    6120942	FORWARD:          0	MERGED:     130680	TO_CACHE:    5990262

BTB TOTAL     ACCESS:    6033516  HIT:    4123215  MISS:    1910301  HIT %:    68.3385  MISS %:    31.6615   MPKI: 38.206
BTB BRANCH_DIRECT_JUMP	ACCESS:     490939  HIT:     331427  MISS:     159512
BTB BRANCH_INDIRECT	ACCESS:     175853  HIT:     140870  MISS:      34983
BTB BRANCH_CONDITIONAL	ACCESS:    2983032  HIT:    2460633  MISS:     522399
BTB BRANCH_DIRECT_CALL	ACCESS:    1002064  HIT:     623208  MISS:     378856
BTB BRANCH_INDIRECT_CALL	ACCESS:     189782  HIT:     117779  MISS:      72003
BTB BRANCH_RETURN	ACCESS:    1191846  HIT:     449298  MISS:     742548
BTB BRANCH_OTHER ACCESS:          0  HIT:          0  MISS:          0

L2C TOTAL     ACCESS:    7046881  HIT:    6564092  MISS:     482789  HIT %:    93.1489  MISS %:     6.8511   MPKI: 9.65578
L2C LOAD      ACCESS:    1243708  HIT:    1099897  MISS:     143811  HIT %:    88.4369  MISS %:    11.5631   MPKI: 2.87622
L2C DATA LOAD MPKI: 2.59498
L2C INSTRUCTION LOAD MPKI: 0.28124
L2C RFO       ACCESS:     309318  HIT:     280358  MISS:      28960  HIT %:    90.6375  MISS %:    9.36253   MPKI: 0.5792
L2C PREFETCH  ACCESS:    4883423  HIT:    4589391  MISS:     294032  HIT %:     93.979  MISS %:    6.02102   MPKI: 5.88064
L2C DATA PREFETCH MPKI: 0.0267
L2C INSTRUCTION PREFETCH MPKI: 5.85394
L2C WRITEBACK ACCESS:     595645  HIT:     582202  MISS:      13443  HIT %:    97.7431  MISS %:    2.25688   MPKI: 0.26886
L2C LOAD TRANSLATION ACCESS:       5437  HIT:       3700  MISS:       1737  HIT %:    68.0522  MISS %:    31.9478   MPKI: 0.03474
L2C TRANSLATION FROM L1D PREFETCHER ACCESS:       9350  HIT:       8544  MISS:        806  HIT %:    91.3797  MISS %:    8.62032   MPKI: 0.01612
L2C PREFETCH  REQUESTED:    1213865  ISSUED:    1213814  USEFUL:       3853  USELESS:     291191
L2C USEFUL LOAD PREFETCHES:       3853 PREFETCH ISSUED TO LOWER LEVEL:     503924  ACCURACY: 0.764599
L2C TIMELY PREFETCHES:       3853 LATE PREFETCHES: 7952 DROPPED PREFETCHES: 0
L2C PREFETCHES SAME FILL-ORIGIN LEVEL: 9287 DIFFERENT FILL-ORIGIN LEVEL: 201940
L2C AVERAGE MISS LATENCY: 31.1715 cycles
L2C RQ	ACCESS:    1567933	FORWARD:          0	MERGED:          0	TO_CACHE:    1567813
L2C WQ	ACCESS:     595645	FORWARD:        120	MERGED:          0	TO_CACHE:     595645
L2C PQ	ACCESS:    5404557	FORWARD:          0	MERGED:     299869	TO_CACHE:    5104688

L2C Instructions Evicting Data 105546
L2C Translations Evicting Data 1259
L2C Data Evicting Data 62178
L2C Instructions Evicting Instructions 200108
L2C Translations Evicting Instructions 1070
L2C Data Evicting Instructions 96673
L2C Instructions Evicting Translations 1105
L2C Translations Evicting Translations 214
L2C Data Evicting Translations 1193
L2C Dense regions hint from L2: 0
PSCL5 TOTAL     ACCESS:      14382  HIT:      14382  MISS:          0  HIT %:        100  MISS %:          0   MPKI: 0
PSCL5 LOAD TRANSLATION ACCESS:       5226  HIT:       5226  MISS:          0  HIT %:        100  MISS %:          0   MPKI: 0
PSCL5 TRANSLATION FROM L1D PREFETCHER ACCESS:       9156  HIT:       9156  MISS:          0  HIT %:        100  MISS %:          0   MPKI: 0
PSCL5 PREFETCH  REQUESTED:          0  ISSUED:          0  USEFUL:          0  USELESS:          0
PSCL5 USEFUL LOAD PREFETCHES:          0 PREFETCH ISSUED TO LOWER LEVEL:          0  ACCURACY: -nan
PSCL5 TIMELY PREFETCHES:          0 LATE PREFETCHES: 0 DROPPED PREFETCHES: 0
PSCL5 PREFETCHES SAME FILL-ORIGIN LEVEL: 0 DIFFERENT FILL-ORIGIN LEVEL: 0

PSCL4 TOTAL     ACCESS:       7398  HIT:       7390  MISS:          8  HIT %:    99.8919  MISS %:   0.108137   MPKI: 0.00016
PSCL4 LOAD TRANSLATION ACCESS:       2886  HIT:       2878  MISS:          8  HIT %:    99.7228  MISS %:     0.2772   MPKI: 0.00016
PSCL4 TRANSLATION FROM L1D PREFETCHER ACCESS:       4512  HIT:       4512  MISS:          0  HIT %:        100  MISS %:          0   MPKI: 0
PSCL4 PREFETCH  REQUESTED:          0  ISSUED:          0  USEFUL:          0  USELESS:          0
PSCL4 USEFUL LOAD PREFETCHES:          0 PREFETCH ISSUED TO LOWER LEVEL:          0  ACCURACY: -nan
PSCL4 TIMELY PREFETCHES:          0 LATE PREFETCHES: 0 DROPPED PREFETCHES: 0
PSCL4 PREFETCHES SAME FILL-ORIGIN LEVEL: 0 DIFFERENT FILL-ORIGIN LEVEL: 0

PSCL3 TOTAL     ACCESS:      14082  HIT:      14067  MISS:         15  HIT %:    99.8935  MISS %:   0.106519   MPKI: 0.0003
PSCL3 LOAD TRANSLATION ACCESS:       5109  HIT:       5094  MISS:         15  HIT %:    99.7064  MISS %:     0.2936   MPKI: 0.0003
PSCL3 TRANSLATION FROM L1D PREFETCHER ACCESS:       8973  HIT:       8973  MISS:          0  HIT %:        100  MISS %:          0   MPKI: 0
PSCL3 PREFETCH  REQUESTED:          0  ISSUED:          0  USEFUL:          0  USELESS:          0
PSCL3 USEFUL LOAD PREFETCHES:          0 PREFETCH ISSUED TO LOWER LEVEL:          0  ACCURACY: -nan
PSCL3 TIMELY PREFETCHES:          0 LATE PREFETCHES: 0 DROPPED PREFETCHES: 0
PSCL3 PREFETCHES SAME FILL-ORIGIN LEVEL: 0 DIFFERENT FILL-ORIGIN LEVEL: 0

PSCL2 TOTAL     ACCESS:      14292  HIT:      14012  MISS:        280  HIT %:    98.0409  MISS %:    1.95914   MPKI: 0.0056
PSCL2 LOAD TRANSLATION ACCESS:       5313  HIT:       5033  MISS:        280  HIT %:    94.7299  MISS %:    5.27009   MPKI: 0.0056
PSCL2 TRANSLATION FROM L1D PREFETCHER ACCESS:       8979  HIT:       8979  MISS:          0  HIT %:        100  MISS %:          0   MPKI: 0
PSCL2 PREFETCH  REQUESTED:          0  ISSUED:          0  USEFUL:          0  USELESS:          0
PSCL2 USEFUL LOAD PREFETCHES:          0 PREFETCH ISSUED TO LOWER LEVEL:          0  ACCURACY: -nan
PSCL2 TIMELY PREFETCHES:          0 LATE PREFETCHES: 0 DROPPED PREFETCHES: 0
PSCL2 PREFETCHES SAME FILL-ORIGIN LEVEL: 0 DIFFERENT FILL-ORIGIN LEVEL: 0

LLC TOTAL     ACCESS:     668230  HIT:     653775  MISS:      14455  HIT %:    97.8368  MISS %:    2.16318   MPKI: 0.2891
LLC LOAD      ACCESS:     135859  HIT:     131187  MISS:       4672  HIT %:    96.5611  MISS %:    3.43886   MPKI: 0.09344
LLC RFO       ACCESS:      28960  HIT:      27047  MISS:       1913  HIT %:    93.3943  MISS %:    6.60566   MPKI: 0.03826
LLC PREFETCH  ACCESS:     458086  HIT:     450346  MISS:       7740  HIT %:    98.3104  MISS %:    1.68964   MPKI: 0.1548
LLC WRITEBACK ACCESS:      42782  HIT:      42678  MISS:        104  HIT %:    99.7569  MISS %:   0.243093   MPKI: 0.00208
LLC LOAD TRANSLATION ACCESS:       1737  HIT:       1714  MISS:         23  HIT %:    98.6759  MISS %:    1.32412   MPKI: 0.00046
LLC TRANSLATION FROM L1D PREFETCHER ACCESS:        806  HIT:        803  MISS:          3  HIT %:    99.6278  MISS %:   0.372208   MPKI: 6e-05
LLC PREFETCH  REQUESTED:          0  ISSUED:          0  USEFUL:       2297  USELESS:       1062
LLC USEFUL LOAD PREFETCHES:       2297 PREFETCH ISSUED TO LOWER LEVEL:       8024  ACCURACY: 28.6266
LLC TIMELY PREFETCHES:       2297 LATE PREFETCHES: 284 DROPPED PREFETCHES: 0
LLC PREFETCHES SAME FILL-ORIGIN LEVEL: 7764 DIFFERENT FILL-ORIGIN LEVEL: 0
LLC AVERAGE MISS LATENCY: 137.045 cycles
LLC RQ	ACCESS:     167362	FORWARD:          0	MERGED:          0	TO_CACHE:     167362
LLC WQ	ACCESS:      42782	FORWARD:          0	MERGED:          0	TO_CACHE:      42782
LLC PQ	ACCESS:     503924	FORWARD:          0	MERGED:      41219	TO_CACHE:     462705

LLC Dense regions hint to LLC: 0

RAW hits: 1079129
Loads Generated: 12389772
Loads sent to L1D: 11310642
Stores Generated: 6823741
Stores sent to L1D: 6823740
Major fault: 0 Minor fault: 2136
Allocated PAGES: 2136
I-Shadow cache 408 bytes
Touched + WorthPF tables 6144 bytes 
MMA filter 174 bytes 
FNL filter 272 bytes 
TOTAL PREFETCHER STORAGE SIZE: 25174 bytes
CPU 0 L1I next line prefetcher final stats
 All Calls: 10806835
 Critical Calls: 384281
------------------
Depth Distribution
------------------
depth 0: 0
depth 1: 240342
depth 2: 188137
depth 3: 162352
depth 4: 147146
depth 5: 135998
depth 6: 122685
depth 7: 101758
depth 8: 69238
depth 9: 35663
depth 10: 11218
depth 11: 2349
depth 12: 352
depth 13: 5
depth 14: 0
depth 15: 0
depth 16: 0
depth 17: 0
depth 18: 0
depth 19: 0
depth 20: 0
depth 21: 0
depth 22: 0
depth 23: 0
depth 24: 0
depth 25: 0
depth 26: 0
depth 27: 0
depth 28: 0
depth 29: 0
Total: 1217243
-----------------------------
-----------------------------
	Captured at Filter
-----------------------------
depth 0: 0
depth 1: 90454
depth 2: 84564
depth 3: 79750
depth 4: 75119
depth 5: 70200
depth 6: 64440
depth 7: 54501
depth 8: 38277
depth 9: 19747
depth 10: 6096
depth 11: 995
depth 12: 68
depth 13: 1
depth 14: 0
depth 15: 0
depth 16: 0
depth 17: 0
depth 18: 0
depth 19: 0
depth 20: 0
depth 21: 0
depth 22: 0
depth 23: 0
depth 24: 0
depth 25: 0
depth 26: 0
depth 27: 0
depth 28: 0
depth 29: 0
-----------------------------
-----------------------------
		Lost at Page
-----------------------------
depth 0: 0
depth 1: 8400
depth 2: 9688
depth 3: 12770
depth 4: 15546
depth 5: 17973
depth 6: 20376
depth 7: 21858
depth 8: 20043
depth 9: 13209
depth 10: 4892
depth 11: 903
depth 12: 86
depth 13: 0
depth 14: 0
depth 15: 0
depth 16: 0
depth 17: 0
depth 18: 0
depth 19: 0
depth 20: 0
depth 21: 0
depth 22: 0
depth 23: 0
depth 24: 0
depth 25: 0
depth 26: 0
depth 27: 0
depth 28: 0
depth 29: 0
-----------------------------
-----------------------------
	Lost due to PQ Size
-----------------------------
51
-----------------------------
ST read accesses: 349044
ST write accesses: 2334
PT read accesses: 11644802
PT write accesses: 481516
FILTER read accesses: 2632108
FILTER write accesses: 633939
GHR read accesses: 888092
GHR write accesses: 145484
GHR counter read accesses: 9821144
GHR counter write accesses: 502224
ST tag read accesses: 136663999
ST tag write accesses: 5413023

DRAM Statistics
 CHANNEL 0
 RQ ROW_BUFFER_HIT:       5120  ROW_BUFFER_MISS:       9228
 DBUS_CONGESTED:        150
 WQ ROW_BUFFER_HIT:        125  ROW_BUFFER_MISS:       1781  FULL:          0

 AVG_CONGESTED_CYCLE: 2
 All warmup complete: 2
Channel 0 Bank busy for read cycles: 0
Channel 0 Bank busy for write cycles: 0
Channel 0
Rank 0
0banks busy for read cycles: 78555217
0banks busy for write cycles: 1088
1banks busy for read cycles: 743944
1banks busy for write cycles: 155647
2banks busy for read cycles: 139415
2banks busy for write cycles: 35363
3banks busy for read cycles: 60873
3banks busy for write cycles: 15975
4banks busy for read cycles: 26171
4banks busy for write cycles: 9039
5banks busy for read cycles: 16855
5banks busy for write cycles: 5880
6banks busy for read cycles: 10346
6banks busy for write cycles: 2476
7banks busy for read cycles: 12537
7banks busy for write cycles: 980
8banks busy for read cycles: 12076
8banks busy for write cycles: 31

CPU 0 Branch Prediction Accuracy: 99.8445% MPKI: 0.29148 Average ROB Occupancy at Mispredict: 81.0755
Branch types
NOT_BRANCH: 40627788 81.2556%
BRANCH_DIRECT_JUMP: 490939 0.981878%
BRANCH_INDIRECT: 175853 0.351706%
BRANCH_CONDITIONAL: 6321387 12.6428%
BRANCH_DIRECT_CALL: 1002064 2.00413%
BRANCH_INDIRECT_CALL: 189782 0.379564%
BRANCH_RETURN: 1191846 2.38369%
BRANCH_OTHER: 0 0%

DRAM PAGES: 1048576
Allocated PAGES: 2136
