
*** ChampSim Multicore Out-of-Order Simulator ***

Warmup Instructions: 50000000
Simulation Instructions: 50000000
Number of CPUs: 1
LLC sets: 2048
LLC ways: 16
Off-chip DRAM Size: 4096 MB Channels: 1 Width: 64-bit Data Rate: 6400 MT/s
CPU 0 runs ../IPC-traces//server_031.champsimtrace.xz
.xz
NUM_OF_IPS_IN_CRITICAL_IP_TRAINING: 64
NUM_OF_CRITICAL_IP_TRAINING_TABLE_WAYS: 2
NUM_OF_CRITICAL_IP_TRAINING_TABLE_SETS: 32
WOBBLY_CRITICAL_IP_CACHE_SETS: 32
WOBBLY_CRITICAL_IP_CACHE_WAYS: 4
BTB has LRU replacement policy
ITLB has LRU replacement policy
DTLB has LRU replacement policy
STLB has LRU replacement policy
CPU 0 L1I next line prefetcher
L1I has LRU replacement policy
IP Table Entries: 64
L1D has LRU replacement policy
Initialize SRRIP state for L2C
Initialize DRRIP state for LLC
Heartbeat CPU 0 instructions: 10000000 cycles: 2882824 heartbeat IPC: 3.46882 cumulative IPC: 3.46882 (Simulation time: 0 hr 5 min 18 sec) 
Heartbeat CPU 0 instructions: 20000000 cycles: 5762057 heartbeat IPC: 3.47315 cumulative IPC: 3.47098 (Simulation time: 0 hr 10 min 10 sec) 
Heartbeat CPU 0 instructions: 30000002 cycles: 8638989 heartbeat IPC: 3.47593 cumulative IPC: 3.47263 (Simulation time: 0 hr 14 min 8 sec) 
Heartbeat CPU 0 instructions: 40000003 cycles: 11516049 heartbeat IPC: 3.47577 cumulative IPC: 3.47341 (Simulation time: 0 hr 18 min 2 sec) 
Heartbeat CPU 0 instructions: 50000001 cycles: 14395730 heartbeat IPC: 3.47261 cumulative IPC: 3.47325 (Simulation time: 0 hr 21 min 51 sec) 

Warmup complete CPU 0 instructions: 50000001 cycles: 14395730 (Simulation time: 0 hr 21 min 51 sec) 

% increase in all ip prefetch 420.926
% increase in all ip prefetch -2.11412
Heartbeat CPU 0 instructions: 60000002 cycles: 30797381 heartbeat IPC: 0.609695 cumulative IPC: 0.609695 (Simulation time: 0 hr 25 min 26 sec) 
Heartbeat CPU 0 instructions: 70000001 cycles: 47248427 heartbeat IPC: 0.607864 cumulative IPC: 0.608778 (Simulation time: 0 hr 29 min 4 sec) 
*** Reached end of trace for Core: 0 Repeating trace: ../IPC-traces//server_031.champsimtrace.xz
Heartbeat CPU 0 instructions: 80000000 cycles: 63528738 heartbeat IPC: 0.614239 cumulative IPC: 0.610587 (Simulation time: 0 hr 32 min 50 sec) 
Heartbeat CPU 0 instructions: 90000000 cycles: 79809516 heartbeat IPC: 0.614221 cumulative IPC: 0.611492 (Simulation time: 0 hr 36 min 28 sec) 
Heartbeat CPU 0 instructions: 100000000 cycles: 96010673 heartbeat IPC: 0.61724 cumulative IPC: 0.612633 (Simulation time: 0 hr 41 min 30 sec) 
Finished CPU 0 instructions: 50000000 cycles: 81614949 cumulative IPC: 0.612633 (Simulation time: 0 hr 41 min 30 sec) 

ChampSim completed all CPUs

Region of Interest Statistics

CPU 0 cumulative IPC: 0.612633 instructions: 50000000 cycles: 81614949

CPU 0 Average Load ROB stall cycles: 1.96169e+07
CPU 0 Fraction of times ROB stalled by Loads: 35.4397
CPU 0 Percentage of Load stall cycles in Total stall cycles: 2.71888e+08
Issued all: 27918543
Issued LT all: 22058395
rob_not_full_when_issued_lt_all: 21928232
Issued LT one: 17132620
rob_not_full_when_issued_lt_one: 17019953
 Total stall cycles: 69162522
 Total load stall cycles: 188044732799033
CPU 0 NUM of IPS identified critical: 0
CPU 0 Num of Load IPs stalling ROB: 10870
Threshold modification factor: -1
Max PIST entries: 64
Min PIST entries: 0
Avg PIST entries: 32
Trouble in retire width: 0.89458
MaC = Marked as critical.
lt_50_percent_before_Mac: 0
gt_90_percent_before_Mac: 0
gt_75_percent_before_Mac: 0
gt_50_percent_before_Mac: 0
stall_proportion_bin_same_before_after: 0
stall_proportion_bin_lower_before_after: 0
stall_proportion_bin_upper_before_after: 0
average_stall_proportion_before: -nan
average_stall_proportion_after: -nan
Critical IP stalls, total frequency: 0
Non-critical IP stalls, total frequency: 3397205
Total Freq all stalling IPs: 3397205
stat_90_percent_critical_ip_stalls_freq: 3057664
stat_90_percent_non_critical_ip_stalls_freq: 339541
Critical_IP_ROB_Stalls_Bucket_0: 0
Non-critical_IP_ROB_Stalls_Bucket_0: 2338268
Critical_IP_ROB_Stalls_Bucket_1: 0
Non-critical_IP_ROB_Stalls_Bucket_1: 711780
Critical_IP_ROB_Stalls_Bucket_2: 0
Non-critical_IP_ROB_Stalls_Bucket_2: 241096
Critical_IP_ROB_Stalls_Bucket_3: 0
Non-critical_IP_ROB_Stalls_Bucket_3: 65614
Critical_IP_ROB_Stalls_Bucket_4: 0
Non-critical_IP_ROB_Stalls_Bucket_4: 24587
Critical_IP_ROB_Stalls_Bucket_5: 0
Non-critical_IP_ROB_Stalls_Bucket_5: 8167
Critical_IP_ROB_Stalls_Bucket_6: 0
Non-critical_IP_ROB_Stalls_Bucket_6: 7693
0 => IPs accounting for >50 percent of stalls, 1 => 55, 2 => 60, 3 => 65 and so on till 90.
percent50: 50.0201 num IPs:  481
percent55: 55.0156 num IPs: 679
percent60: 60.011 num IPs: 884
percent65: 65.0035 num IPs: 1095
percent70: 70.0074 num IPs: 1311
percent75: 75.0018 num IPs: 1527
percent80: 80.0021 num IPs: 1747
percent85: 85.0068 num IPs: 1977
percent90: 90.0048 num IPs: 2240
Critical_ROB_Stalls_Percent_0_Bucket_0: 974345
Non-critical_ROB_Stalls_Percent_0_Bucket_0: 1363923
Critical_ROB_Stalls_Percent_0_Bucket_1: 443556
Non-critical_ROB_Stalls_Percent_0_Bucket_1: 268224
Critical_ROB_Stalls_Percent_0_Bucket_2: 186082
Non-critical_ROB_Stalls_Percent_0_Bucket_2: 55014
Critical_ROB_Stalls_Percent_0_Bucket_3: 59013
Non-critical_ROB_Stalls_Percent_0_Bucket_3: 6601
Critical_ROB_Stalls_Percent_0_Bucket_4: 21896
Non-critical_ROB_Stalls_Percent_0_Bucket_4: 2691
Critical_ROB_Stalls_Percent_0_Bucket_5: 7239
Non-critical_ROB_Stalls_Percent_0_Bucket_5: 928
Critical_ROB_Stalls_Percent_0_Bucket_6: 7154
Non-critical_ROB_Stalls_Percent_0_Bucket_6: 539
Critical_ROB_Stalls_Percent_1_Bucket_0: 1104490
Non-critical_ROB_Stalls_Percent_1_Bucket_0: 1233778
Critical_ROB_Stalls_Percent_1_Bucket_1: 474575
Non-critical_ROB_Stalls_Percent_1_Bucket_1: 237205
Critical_ROB_Stalls_Percent_1_Bucket_2: 193371
Non-critical_ROB_Stalls_Percent_1_Bucket_2: 47725
Critical_ROB_Stalls_Percent_1_Bucket_3: 59501
Non-critical_ROB_Stalls_Percent_1_Bucket_3: 6113
Critical_ROB_Stalls_Percent_1_Bucket_4: 22647
Non-critical_ROB_Stalls_Percent_1_Bucket_4: 1940
Critical_ROB_Stalls_Percent_1_Bucket_5: 7252
Non-critical_ROB_Stalls_Percent_1_Bucket_5: 915
Critical_ROB_Stalls_Percent_1_Bucket_6: 7155
Non-critical_ROB_Stalls_Percent_1_Bucket_6: 538
Critical_ROB_Stalls_Percent_2_Bucket_0: 1211374
Non-critical_ROB_Stalls_Percent_2_Bucket_0: 1126894
Critical_ROB_Stalls_Percent_2_Bucket_1: 526036
Non-critical_ROB_Stalls_Percent_2_Bucket_1: 185744
Critical_ROB_Stalls_Percent_2_Bucket_2: 204138
Non-critical_ROB_Stalls_Percent_2_Bucket_2: 36958
Critical_ROB_Stalls_Percent_2_Bucket_3: 60016
Non-critical_ROB_Stalls_Percent_2_Bucket_3: 5598
Critical_ROB_Stalls_Percent_2_Bucket_4: 22718
Non-critical_ROB_Stalls_Percent_2_Bucket_4: 1869
Critical_ROB_Stalls_Percent_2_Bucket_5: 7256
Non-critical_ROB_Stalls_Percent_2_Bucket_5: 911
Critical_ROB_Stalls_Percent_2_Bucket_6: 7155
Non-critical_ROB_Stalls_Percent_2_Bucket_6: 538
Critical_ROB_Stalls_Percent_3_Bucket_0: 1339394
Non-critical_ROB_Stalls_Percent_3_Bucket_0: 998874
Critical_ROB_Stalls_Percent_3_Bucket_1: 561560
Non-critical_ROB_Stalls_Percent_3_Bucket_1: 150220
Critical_ROB_Stalls_Percent_3_Bucket_2: 210075
Non-critical_ROB_Stalls_Percent_3_Bucket_2: 31021
Critical_ROB_Stalls_Percent_3_Bucket_3: 60134
Non-critical_ROB_Stalls_Percent_3_Bucket_3: 5480
Critical_ROB_Stalls_Percent_3_Bucket_4: 22724
Non-critical_ROB_Stalls_Percent_3_Bucket_4: 1863
Critical_ROB_Stalls_Percent_3_Bucket_5: 7256
Non-critical_ROB_Stalls_Percent_3_Bucket_5: 911
Critical_ROB_Stalls_Percent_3_Bucket_6: 7159
Non-critical_ROB_Stalls_Percent_3_Bucket_6: 534
Critical_ROB_Stalls_Percent_4_Bucket_0: 1479028
Non-critical_ROB_Stalls_Percent_4_Bucket_0: 859240
Critical_ROB_Stalls_Percent_4_Bucket_1: 587126
Non-critical_ROB_Stalls_Percent_4_Bucket_1: 124654
Critical_ROB_Stalls_Percent_4_Bucket_2: 214850
Non-critical_ROB_Stalls_Percent_4_Bucket_2: 26246
Critical_ROB_Stalls_Percent_4_Bucket_3: 60176
Non-critical_ROB_Stalls_Percent_4_Bucket_3: 5438
Critical_ROB_Stalls_Percent_4_Bucket_4: 22724
Non-critical_ROB_Stalls_Percent_4_Bucket_4: 1863
Critical_ROB_Stalls_Percent_4_Bucket_5: 7256
Non-critical_ROB_Stalls_Percent_4_Bucket_5: 911
Critical_ROB_Stalls_Percent_4_Bucket_6: 7159
Non-critical_ROB_Stalls_Percent_4_Bucket_6: 534
Critical_ROB_Stalls_Percent_5_Bucket_0: 1621605
Non-critical_ROB_Stalls_Percent_5_Bucket_0: 716663
Critical_ROB_Stalls_Percent_5_Bucket_1: 607977
Non-critical_ROB_Stalls_Percent_5_Bucket_1: 103803
Critical_ROB_Stalls_Percent_5_Bucket_2: 220391
Non-critical_ROB_Stalls_Percent_5_Bucket_2: 20705
Critical_ROB_Stalls_Percent_5_Bucket_3: 60831
Non-critical_ROB_Stalls_Percent_5_Bucket_3: 4783
Critical_ROB_Stalls_Percent_5_Bucket_4: 22756
Non-critical_ROB_Stalls_Percent_5_Bucket_4: 1831
Critical_ROB_Stalls_Percent_5_Bucket_5: 7261
Non-critical_ROB_Stalls_Percent_5_Bucket_5: 906
Critical_ROB_Stalls_Percent_5_Bucket_6: 7162
Non-critical_ROB_Stalls_Percent_5_Bucket_6: 531
Critical_ROB_Stalls_Percent_6_Bucket_0: 1771440
Non-critical_ROB_Stalls_Percent_6_Bucket_0: 566828
Critical_ROB_Stalls_Percent_6_Bucket_1: 625091
Non-critical_ROB_Stalls_Percent_6_Bucket_1: 86689
Critical_ROB_Stalls_Percent_6_Bucket_2: 223243
Non-critical_ROB_Stalls_Percent_6_Bucket_2: 17853
Critical_ROB_Stalls_Percent_6_Bucket_3: 60861
Non-critical_ROB_Stalls_Percent_6_Bucket_3: 4753
Critical_ROB_Stalls_Percent_6_Bucket_4: 22787
Non-critical_ROB_Stalls_Percent_6_Bucket_4: 1800
Critical_ROB_Stalls_Percent_6_Bucket_5: 7261
Non-critical_ROB_Stalls_Percent_6_Bucket_5: 906
Critical_ROB_Stalls_Percent_6_Bucket_6: 7171
Non-critical_ROB_Stalls_Percent_6_Bucket_6: 522
Critical_ROB_Stalls_Percent_7_Bucket_0: 1920026
Non-critical_ROB_Stalls_Percent_7_Bucket_0: 418242
Critical_ROB_Stalls_Percent_7_Bucket_1: 643420
Non-critical_ROB_Stalls_Percent_7_Bucket_1: 68360
Critical_ROB_Stalls_Percent_7_Bucket_2: 226203
Non-critical_ROB_Stalls_Percent_7_Bucket_2: 14893
Critical_ROB_Stalls_Percent_7_Bucket_3: 60973
Non-critical_ROB_Stalls_Percent_7_Bucket_3: 4641
Critical_ROB_Stalls_Percent_7_Bucket_4: 22814
Non-critical_ROB_Stalls_Percent_7_Bucket_4: 1773
Critical_ROB_Stalls_Percent_7_Bucket_5: 7263
Non-critical_ROB_Stalls_Percent_7_Bucket_5: 904
Critical_ROB_Stalls_Percent_7_Bucket_6: 7171
Non-critical_ROB_Stalls_Percent_7_Bucket_6: 522
Critical_ROB_Stalls_Percent_8_Bucket_0: 2069350
Non-critical_ROB_Stalls_Percent_8_Bucket_0: 268918
Critical_ROB_Stalls_Percent_8_Bucket_1: 657857
Non-critical_ROB_Stalls_Percent_8_Bucket_1: 53923
Critical_ROB_Stalls_Percent_8_Bucket_2: 229672
Non-critical_ROB_Stalls_Percent_8_Bucket_2: 11424
Critical_ROB_Stalls_Percent_8_Bucket_3: 62200
Non-critical_ROB_Stalls_Percent_8_Bucket_3: 3414
Critical_ROB_Stalls_Percent_8_Bucket_4: 23414
Non-critical_ROB_Stalls_Percent_8_Bucket_4: 1173
Critical_ROB_Stalls_Percent_8_Bucket_5: 7875
Non-critical_ROB_Stalls_Percent_8_Bucket_5: 292
Critical_ROB_Stalls_Percent_8_Bucket_6: 7296
Non-critical_ROB_Stalls_Percent_8_Bucket_6: 397
Average ROB occupancy Load Stall Begin: 37.6913
Average ROB occupancy Load Stall End: 46.2314
Min ROB occupancy Load Stall Begin: 1
Max ROB occupancy Load Stall Begin: 352
Min ROB occupancy Load Stall End: 1
Max ROB occupancy Load Stall End: 352
Average ROB occupancy Critical Load Stall Begin: -nan
Average ROB occupancy Critical Load Stall End: -nan
Min ROB occupancy Critical Load Stall Begin: 400
Max ROB occupancy Critical Load Stall Begin: 0
Min ROB occupancy Critical Load Stall End: 400
Max ROB occupancy Critical Load Stall End: 0
 ROB Load Stall Begin Bucket Count 0: 2607223
 ROB Load Stall End Bucket Count 0: 2338268
 ROB Critical Load Stall Begin Bucket Count 0: 0
 ROB Critical Load Stall End Bucket Count 0: 0
 ROB Load Stall Begin Bucket Count 1: 519876
 ROB Load Stall End Bucket Count 1: 711780
 ROB Critical Load Stall Begin Bucket Count 1: 0
 ROB Critical Load Stall End Bucket Count 1: 0
 ROB Load Stall Begin Bucket Count 2: 185787
 ROB Load Stall End Bucket Count 2: 241096
 ROB Critical Load Stall Begin Bucket Count 2: 0
 ROB Critical Load Stall End Bucket Count 2: 0
 ROB Load Stall Begin Bucket Count 3: 52087
 ROB Load Stall End Bucket Count 3: 65614
 ROB Critical Load Stall Begin Bucket Count 3: 0
 ROB Critical Load Stall End Bucket Count 3: 0
 ROB Load Stall Begin Bucket Count 4: 19004
 ROB Load Stall End Bucket Count 4: 24587
 ROB Critical Load Stall Begin Bucket Count 4: 0
 ROB Critical Load Stall End Bucket Count 4: 0
 ROB Load Stall Begin Bucket Count 5: 6428
 ROB Load Stall End Bucket Count 5: 8167
 ROB Critical Load Stall Begin Bucket Count 5: 0
 ROB Critical Load Stall End Bucket Count 5: 0
 ROB Load Stall Begin Bucket Count 6: 6800
 ROB Load Stall End Bucket Count 6: 7693
 ROB Critical Load Stall Begin Bucket Count 6: 0
 ROB Critical Load Stall End Bucket Count 6: 0
PIST Tag Read Accesses: 2476370
PIST Read Accesses: 1238185
PIST Tag Write Accesses: 2476370
PIST Write Accesses: 1238185
Criticality detector called times: 3307153
Max global_stall_cycles_count: 2172182
Threshold Modified: 1 times, factor: -1
Sturdy critical IP cache stats: 
 Unused entries: 0
CIC Tag Read Accesses: 0
CIC Read Accesses: 0
CIC Tag Write Accesses: 0
CIC Write Accesses: 0
Wobbly critical IP cache stats: 
 Unused entries: 123
CIC Tag Read Accesses: 84258888
CIC Read Accesses: 0
CIC Tag Write Accesses: 5
CIC Write Accesses: 0
ITLB TOTAL     ACCESS:   10407493  HIT:    9634597  MISS:     772896  HIT %:    92.5737  MISS %:    7.42634   MPKI: 15.4579
ITLB LOAD TRANSLATION ACCESS:    8207643  HIT:    8157951  MISS:      49692  HIT %:    99.3946  MISS %:   0.605436   MPKI: 0.99384
ITLB TRANSLATION FROM L1D PREFETCHER ACCESS:    2199850  HIT:    1476646  MISS:     723204  HIT %:    67.1248  MISS %:    32.8752   MPKI: 14.4641
ITLB PREFETCH  REQUESTED:          0  ISSUED:          0  USEFUL:     577357  USELESS:     145849
ITLB USEFUL LOAD PREFETCHES:     577357 PREFETCH ISSUED TO LOWER LEVEL:          0  ACCURACY: inf
ITLB TIMELY PREFETCHES:     577357 LATE PREFETCHES: 77 DROPPED PREFETCHES: 5656
ITLB PREFETCHES SAME FILL-ORIGIN LEVEL: 0 DIFFERENT FILL-ORIGIN LEVEL: 0
ITLB AVERAGE MISS LATENCY: 5158.95 cycles
ITLB RQ	ACCESS:   15902292	FORWARD:          0	MERGED:    5442601	TO_CACHE:   10459691

DTLB TOTAL     ACCESS:   11398147  HIT:   10840196  MISS:     557951  HIT %:    95.1049  MISS %:     4.8951   MPKI: 11.159
DTLB LOAD TRANSLATION ACCESS:   11398147  HIT:   10840196  MISS:     557951  HIT %:    95.1049  MISS %:     4.8951   MPKI: 11.159
DTLB PREFETCH  REQUESTED:          0  ISSUED:          0  USEFUL:          0  USELESS:          0
DTLB USEFUL LOAD PREFETCHES:          0 PREFETCH ISSUED TO LOWER LEVEL:          0  ACCURACY: -nan
DTLB TIMELY PREFETCHES:          0 LATE PREFETCHES: 0 DROPPED PREFETCHES: 0
DTLB PREFETCHES SAME FILL-ORIGIN LEVEL: 0 DIFFERENT FILL-ORIGIN LEVEL: 0
DTLB AVERAGE MISS LATENCY: 10.9297 cycles
DTLB RQ	ACCESS:   14921414	FORWARD:          0	MERGED:    3495954	TO_CACHE:   11425460

STLB TOTAL     ACCESS:    1352710  HIT:    1337022  MISS:      15688  HIT %:    98.8403  MISS %:    1.15975   MPKI: 0.31376
STLB LOAD TRANSLATION ACCESS:     607566  HIT:     593709  MISS:      13857  HIT %:    97.7193  MISS %:    2.28074   MPKI: 0.27714
STLB TRANSLATION FROM L1D PREFETCHER ACCESS:     745144  HIT:     743313  MISS:       1831  HIT %:    99.7543  MISS %:   0.245724   MPKI: 0.03662
STLB PREFETCH  REQUESTED:          0  ISSUED:          0  USEFUL:       1548  USELESS:        277
STLB USEFUL LOAD PREFETCHES:       1548 PREFETCH ISSUED TO LOWER LEVEL:          0  ACCURACY: inf
STLB TIMELY PREFETCHES:       1548 LATE PREFETCHES: 0 DROPPED PREFETCHES: 5656
STLB PREFETCHES SAME FILL-ORIGIN LEVEL: 0 DIFFERENT FILL-ORIGIN LEVEL: 0
STLB AVERAGE MISS LATENCY: 74.3826 cycles
STLB RQ	ACCESS:    1363194	FORWARD:          0	MERGED:       4829	TO_CACHE:    1358365

STLB Hit, L1D data hit: 0
STLB Hit, L2C data hit: 0
STLB Hit, LLC data hit: 0
STLB Hit, LLC data miss: 0
STLB STLB hints to L2: 0
L1D TOTAL     ACCESS:   14413008  HIT:   13155685  MISS:    1257323  HIT %:    91.2765  MISS %:    8.72353   MPKI: 25.1465
L1D LOAD      ACCESS:    7965092  HIT:    7028169  MISS:     936923  HIT %:    88.2371  MISS %:    11.7629   MPKI: 18.7385
L1D RFO       ACCESS:    6424739  HIT:    6120379  MISS:     304360  HIT %:    95.2627  MISS %:    4.73731   MPKI: 6.0872
L1D PREFETCH  ACCESS:      23177  HIT:       7137  MISS:      16040  HIT %:    30.7935  MISS %:    69.2065   MPKI: 0.3208
L1D PREFETCH  REQUESTED:      53390  ISSUED:      53390  USEFUL:       2638  USELESS:      13420
L1D USEFUL LOAD PREFETCHES:       2638 PREFETCH ISSUED TO LOWER LEVEL:      18492  ACCURACY: 14.2656
L1D TIMELY PREFETCHES:       2638 LATE PREFETCHES: 2448 DROPPED PREFETCHES: 0
L1D PREFETCHES SAME FILL-ORIGIN LEVEL: 18492 DIFFERENT FILL-ORIGIN LEVEL: 0
L1D AVERAGE MISS LATENCY: 45786.2 cycles
L1D RQ	ACCESS:   11357187	FORWARD:          0	MERGED:    3199793	TO_CACHE:    8006563
L1D WQ	ACCESS:    6987103	FORWARD:     150839	MERGED:      72252	TO_CACHE:    6914851
L1D PQ	ACCESS:      26699	FORWARD:          0	MERGED:          0	TO_CACHE:      26691

L1D UNIQUE REGIONS ACCESSED: 0
L1D REGIONS CONFLICTS: 0
L1D Cross Page Prefetch Requests: 0
L1D Same Page Prefetch Requests: 366437
L1D ROI Sum of L1D PQ occupancy: 350966
L1D PREFETCHES PUSHED FROM L2C: 0
L1I TOTAL     ACCESS:   15822087  HIT:   11482223  MISS:    4339864  HIT %:    72.5708  MISS %:    27.4292   MPKI: 86.7973
L1I LOAD      ACCESS:    9700099  HIT:    9625247  MISS:      74852  HIT %:    99.2283  MISS %:   0.771662   MPKI: 1.49704
L1I PREFETCH  ACCESS:    6121988  HIT:    1856976  MISS:    4265012  HIT %:    30.3329  MISS %:    69.6671   MPKI: 85.3002
L1I PREFETCH  REQUESTED:    6337436  ISSUED:    6327514  USEFUL:    3054925  USELESS:    1210117
L1I USEFUL LOAD PREFETCHES:    3054925 PREFETCH ISSUED TO LOWER LEVEL:    4277904  ACCURACY: 71.4117
L1I TIMELY PREFETCHES:    3054925 LATE PREFETCHES: 12900 DROPPED PREFETCHES: 12278
L1I PREFETCHES SAME FILL-ORIGIN LEVEL: 4277904 DIFFERENT FILL-ORIGIN LEVEL: 0
L1I AVERAGE MISS LATENCY: 159554 cycles
L1I RQ	ACCESS:   13649942	FORWARD:          0	MERGED:    3939003	TO_CACHE:    9710939
L1I PQ	ACCESS:    6327514	FORWARD:          0	MERGED:     136161	TO_CACHE:    6191353

BTB TOTAL     ACCESS:    6108832  HIT:    4217936  MISS:    1890896  HIT %:    69.0465  MISS %:    30.9535   MPKI: 37.8179
BTB BRANCH_DIRECT_JUMP	ACCESS:     546483  HIT:     394596  MISS:     151887
BTB BRANCH_INDIRECT	ACCESS:     172433  HIT:     135681  MISS:      36752
BTB BRANCH_CONDITIONAL	ACCESS:    2972190  HIT:    2453638  MISS:     518552
BTB BRANCH_DIRECT_CALL	ACCESS:    1018497  HIT:     648526  MISS:     369971
BTB BRANCH_INDIRECT_CALL	ACCESS:     190373  HIT:     119425  MISS:      70948
BTB BRANCH_RETURN	ACCESS:    1208856  HIT:     466070  MISS:     742786
BTB BRANCH_OTHER ACCESS:          0  HIT:          0  MISS:          0

L2C TOTAL     ACCESS:    6237532  HIT:    5826440  MISS:     411092  HIT %:    93.4094  MISS %:    6.59062   MPKI: 8.22184
L2C LOAD      ACCESS:     996418  HIT:     863130  MISS:     133288  HIT %:    86.6233  MISS %:    13.3767   MPKI: 2.66576
L2C DATA LOAD MPKI: 2.47008
L2C INSTRUCTION LOAD MPKI: 0.19568
L2C RFO       ACCESS:     304356  HIT:     277080  MISS:      27276  HIT %:    91.0381  MISS %:    8.96187   MPKI: 0.54552
L2C PREFETCH  ACCESS:    4325708  HIT:    4100299  MISS:     225409  HIT %:    94.7891  MISS %:    5.21092   MPKI: 4.50818
L2C DATA PREFETCH MPKI: 0.27992
L2C INSTRUCTION PREFETCH MPKI: 4.22826
L2C WRITEBACK ACCESS:     578062  HIT:     565078  MISS:      12984  HIT %:    97.7539  MISS %:    2.24613   MPKI: 0.25968
L2C LOAD TRANSLATION ACCESS:      21107  HIT:       9933  MISS:      11174  HIT %:    47.0602  MISS %:    52.9398   MPKI: 0.22348
L2C TRANSLATION FROM L1D PREFETCHER ACCESS:      11881  HIT:      10920  MISS:        961  HIT %:    91.9115  MISS %:    8.08854   MPKI: 0.01922
L2C PREFETCH  REQUESTED:      30449  ISSUED:      30449  USEFUL:       3123  USELESS:     224402
L2C USEFUL LOAD PREFETCHES:       3123 PREFETCH ISSUED TO LOWER LEVEL:     225494  ACCURACY: 1.38496
L2C TIMELY PREFETCHES:       3123 LATE PREFETCHES: 85 DROPPED PREFETCHES: 0
L2C PREFETCHES SAME FILL-ORIGIN LEVEL: 4355 DIFFERENT FILL-ORIGIN LEVEL: 0
L2C AVERAGE MISS LATENCY: 43.72 cycles
L2C RQ	ACCESS:    1333770	FORWARD:          0	MERGED:          0	TO_CACHE:    1333762
L2C WQ	ACCESS:     578062	FORWARD:          8	MERGED:          0	TO_CACHE:     578062
L2C PQ	ACCESS:    4326845	FORWARD:          0	MERGED:        749	TO_CACHE:    4326096

L2C Instructions Evicting Data 79985
L2C Translations Evicting Data 7368
L2C Data Evicting Data 85764
L2C Instructions Evicting Instructions 137364
L2C Translations Evicting Instructions 3888
L2C Data Evicting Instructions 71919
L2C Instructions Evicting Translations 3848
L2C Translations Evicting Translations 879
L2C Data Evicting Translations 7093
L2C Dense regions hint from L2: 0
PSCL5 TOTAL     ACCESS:      21344  HIT:      21344  MISS:          0  HIT %:        100  MISS %:          0   MPKI: 0
PSCL5 LOAD TRANSLATION ACCESS:      13857  HIT:      13857  MISS:          0  HIT %:        100  MISS %:          0   MPKI: 0
PSCL5 TRANSLATION FROM L1D PREFETCHER ACCESS:       7487  HIT:       7487  MISS:          0  HIT %:        100  MISS %:          0   MPKI: 0
PSCL5 PREFETCH  REQUESTED:          0  ISSUED:          0  USEFUL:          0  USELESS:          0
PSCL5 USEFUL LOAD PREFETCHES:          0 PREFETCH ISSUED TO LOWER LEVEL:          0  ACCURACY: -nan
PSCL5 TIMELY PREFETCHES:          0 LATE PREFETCHES: 0 DROPPED PREFETCHES: 0
PSCL5 PREFETCHES SAME FILL-ORIGIN LEVEL: 0 DIFFERENT FILL-ORIGIN LEVEL: 0

PSCL4 TOTAL     ACCESS:      19943  HIT:      19751  MISS:        192  HIT %:    99.0373  MISS %:   0.962744   MPKI: 0.00384
PSCL4 LOAD TRANSLATION ACCESS:      12866  HIT:      12674  MISS:        192  HIT %:    98.5077  MISS %:    1.49231   MPKI: 0.00384
PSCL4 TRANSLATION FROM L1D PREFETCHER ACCESS:       7077  HIT:       7077  MISS:          0  HIT %:        100  MISS %:          0   MPKI: 0
PSCL4 PREFETCH  REQUESTED:          0  ISSUED:          0  USEFUL:          0  USELESS:          0
PSCL4 USEFUL LOAD PREFETCHES:          0 PREFETCH ISSUED TO LOWER LEVEL:          0  ACCURACY: -nan
PSCL4 TIMELY PREFETCHES:          0 LATE PREFETCHES: 0 DROPPED PREFETCHES: 0
PSCL4 PREFETCHES SAME FILL-ORIGIN LEVEL: 0 DIFFERENT FILL-ORIGIN LEVEL: 0

PSCL3 TOTAL     ACCESS:      21204  HIT:      21009  MISS:        195  HIT %:    99.0804  MISS %:   0.919638   MPKI: 0.0039
PSCL3 LOAD TRANSLATION ACCESS:      13861  HIT:      13666  MISS:        195  HIT %:    98.5932  MISS %:    1.40682   MPKI: 0.0039
PSCL3 TRANSLATION FROM L1D PREFETCHER ACCESS:       7343  HIT:       7343  MISS:          0  HIT %:        100  MISS %:          0   MPKI: 0
PSCL3 PREFETCH  REQUESTED:          0  ISSUED:          0  USEFUL:          0  USELESS:          0
PSCL3 USEFUL LOAD PREFETCHES:          0 PREFETCH ISSUED TO LOWER LEVEL:          0  ACCURACY: -nan
PSCL3 TIMELY PREFETCHES:          0 LATE PREFETCHES: 0 DROPPED PREFETCHES: 0
PSCL3 PREFETCHES SAME FILL-ORIGIN LEVEL: 0 DIFFERENT FILL-ORIGIN LEVEL: 0

PSCL2 TOTAL     ACCESS:      17959  HIT:      10216  MISS:       7743  HIT %:    56.8851  MISS %:    43.1149   MPKI: 0.15486
PSCL2 LOAD TRANSLATION ACCESS:      14652  HIT:       6909  MISS:       7743  HIT %:     47.154  MISS %:     52.846   MPKI: 0.15486
PSCL2 TRANSLATION FROM L1D PREFETCHER ACCESS:       3307  HIT:       3307  MISS:          0  HIT %:        100  MISS %:          0   MPKI: 0
PSCL2 PREFETCH  REQUESTED:          0  ISSUED:          0  USEFUL:          0  USELESS:          0
PSCL2 USEFUL LOAD PREFETCHES:          0 PREFETCH ISSUED TO LOWER LEVEL:          0  ACCURACY: -nan
PSCL2 TIMELY PREFETCHES:          0 LATE PREFETCHES: 0 DROPPED PREFETCHES: 0
PSCL2 PREFETCHES SAME FILL-ORIGIN LEVEL: 0 DIFFERENT FILL-ORIGIN LEVEL: 0

LLC TOTAL     ACCESS:     435906  HIT:     394032  MISS:      41874  HIT %:    90.3938  MISS %:     9.6062   MPKI: 0.83748
LLC LOAD      ACCESS:     133204  HIT:     103809  MISS:      29395  HIT %:    77.9323  MISS %:    22.0677   MPKI: 0.5879
LLC RFO       ACCESS:      27274  HIT:      23075  MISS:       4199  HIT %:    84.6044  MISS %:    15.3956   MPKI: 0.08398
LLC PREFETCH  ACCESS:     225494  HIT:     218877  MISS:       6617  HIT %:    97.0656  MISS %:    2.93445   MPKI: 0.13234
LLC WRITEBACK ACCESS:      37799  HIT:      37544  MISS:        255  HIT %:    99.3254  MISS %:   0.674621   MPKI: 0.0051
LLC LOAD TRANSLATION ACCESS:      11174  HIT:       9785  MISS:       1389  HIT %:    87.5694  MISS %:    12.4306   MPKI: 0.02778
LLC TRANSLATION FROM L1D PREFETCHER ACCESS:        961  HIT:        942  MISS:         19  HIT %:    98.0229  MISS %:    1.97711   MPKI: 0.00038
LLC PREFETCH  REQUESTED:          0  ISSUED:          0  USEFUL:       1392  USELESS:      16061
LLC USEFUL LOAD PREFETCHES:       1392 PREFETCH ISSUED TO LOWER LEVEL:       6617  ACCURACY: 21.0367
LLC TIMELY PREFETCHES:       1392 LATE PREFETCHES: 0 DROPPED PREFETCHES: 0
LLC PREFETCHES SAME FILL-ORIGIN LEVEL: 0 DIFFERENT FILL-ORIGIN LEVEL: 0
LLC AVERAGE MISS LATENCY: 143.398 cycles
LLC RQ	ACCESS:     172614	FORWARD:          0	MERGED:          0	TO_CACHE:     172613
LLC WQ	ACCESS:      37799	FORWARD:          1	MERGED:          0	TO_CACHE:      37799
LLC PQ	ACCESS:     225494	FORWARD:          0	MERGED:          0	TO_CACHE:     225494

LLC Dense regions hint to LLC: 0

RAW hits: 1100219
Loads Generated: 12457406
Loads sent to L1D: 11357187
Stores Generated: 6987099
Stores sent to L1D: 6987103
Major fault: 0 Minor fault: 6261
Allocated PAGES: 6261
I-Shadow cache 408 bytes
Touched + WorthPF tables 6144 bytes 
MMA filter 174 bytes 
FNL filter 272 bytes 
TOTAL PREFETCHER STORAGE SIZE: 25174 bytes
CPU 0 L1I next line prefetcher final stats

stream: 
stream:times selected: 535980
stream:pref_filled: 97480
stream:pref_useful: 24859
stream:pref_late: 8243
stream:misses: 4348
stream:misses_by_poll: 0

CS: 
CS:times selected: 75530
CS:pref_filled: 45863
CS:pref_useful: 33044
CS:pref_late: 3383
CS:misses: 10338
CS:misses_by_poll: 0

CPLX: 
CPLX:times selected: 459404
CPLX:pref_filled: 29234
CPLX:pref_useful: 7806
CPLX:pref_late: 2290
CPLX:misses: 81194
CPLX:misses_by_poll: 1

NL_L1: 
NL:times selected: 2698
NL:pref_filled: 269
NL:pref_useful: 53
NL:pref_late: 21
NL:misses: 94
NL:misses_by_poll: 0

total selections: 1073612
total_filled: 16040
total_useful: 2638
total_late: 15175
total_polluted: 1
total_misses_after_warmup: 39660
conflicts: 135397
Degree Incremented Times: 0
Degree Decremented Times: 69875

L1 IP Table Write Accesses: 279083
L1 IP Table Read Accesses: 143686
L1 RST Write Accesses: 40121
L1 RST Read Accesses: 80242
L1 CSPT Write Accesses: 40121
L1 CSPT Read Accesses: 74854
L1 RR Filter Tag Write Accesses: 26699
L1 RR Filter Tag Read Accesses: 1845899
L1 IP Table Tag Write Accesses: 422514
L1 IP Table Tag Read Accesses: 422514
L1 RST Tag Write Accesses: 0
L1 RST Tag Read Accesses: 366425
L1 RR Filter Write Accesses: 0
L1 RR Filter Read Accesses: 66497
test: 95258
L2 IP Table Read Accesses: 68853
L2 IP Table Write Accesses: 92664
L2 IP Table Tag Read Accesses: 49832
L2 IP Table Tag Write Accesses: 49832

DRAM Statistics
 CHANNEL 0
 RQ ROW_BUFFER_HIT:      13625  ROW_BUFFER_MISS:      27992
 DBUS_CONGESTED:         18
 WQ ROW_BUFFER_HIT:       1014  ROW_BUFFER_MISS:       3209  FULL:          0

 AVG_CONGESTED_CYCLE: 5
 All warmup complete: 2
Channel 0 Bank busy for read cycles: 0
Channel 0 Bank busy for write cycles: 0
Channel 0
Rank 0
0banks busy for read cycles: 77177064
0banks busy for write cycles: 2272
1banks busy for read cycles: 2654928
1banks busy for write cycles: 564715
2banks busy for read cycles: 602780
2banks busy for write cycles: 215480
3banks busy for read cycles: 155691
3banks busy for write cycles: 81150
4banks busy for read cycles: 35743
4banks busy for write cycles: 34488
5banks busy for read cycles: 16190
5banks busy for write cycles: 14219
6banks busy for read cycles: 13353
6banks busy for write cycles: 5551
7banks busy for read cycles: 13339
7banks busy for write cycles: 2822
8banks busy for read cycles: 19846
8banks busy for write cycles: 5319

CPU 0 Branch Prediction Accuracy: 99.6894% MPKI: 0.58048 Average ROB Occupancy at Mispredict: 90.3813
Branch types
NOT_BRANCH: 40655535 81.3111%
BRANCH_DIRECT_JUMP: 546483 1.09297%
BRANCH_INDIRECT: 172433 0.344866%
BRANCH_CONDITIONAL: 6207556 12.4151%
BRANCH_DIRECT_CALL: 1018497 2.03699%
BRANCH_INDIRECT_CALL: 190373 0.380746%
BRANCH_RETURN: 1208856 2.41771%
BRANCH_OTHER: 0 0%

DRAM PAGES: 1048576
Allocated PAGES: 6261
