Initialize SIGNATURE TABLE
ST_SET: 1
ST_WAY: 256
ST_TAG_BIT: 16
ST_TAG_MASK: ffff

Initialize PATTERN TABLE
PT_SET: 512
PT_WAY: 4
SIG_DELTA_BIT: 7
C_SIG_BIT: 4
C_DELTA_BIT: 4

Initialize PREFETCH FILTER
FILTER_SET: 1024

*** ChampSim Multicore Out-of-Order Simulator ***

Warmup Instructions: 50000000
Simulation Instructions: 50000000
Number of CPUs: 1
LLC sets: 2048
LLC ways: 16
Off-chip DRAM Size: 4096 MB Channels: 1 Width: 64-bit Data Rate: 6400 MT/s
CPU 0 runs ../../IPC-traces//server_020.champsimtrace.xz
.xz
NUM_OF_IPS_IN_CRITICAL_IP_TRAINING: 64
NUM_OF_CRITICAL_IP_TRAINING_TABLE_WAYS: 2
NUM_OF_CRITICAL_IP_TRAINING_TABLE_SETS: 32
WOBBLY_CRITICAL_IP_CACHE_SETS: 32
WOBBLY_CRITICAL_IP_CACHE_WAYS: 4
BTB has LRU replacement policy
ITLB has LRU replacement policy
DTLB has LRU replacement policy
STLB has LRU replacement policy
CPU 0 L1I next line prefetcher
L1I has LRU replacement policy
L1D has LRU replacement policy
Initialize SRRIP state for L2C
Initialize DRRIP state for LLC
Heartbeat CPU 0 instructions: 10000003 cycles: 3207337 heartbeat IPC: 3.11785 cumulative IPC: 3.11785 (Simulation time: 0 hr 5 min 54 sec) 
Heartbeat CPU 0 instructions: 20000001 cycles: 6421712 heartbeat IPC: 3.11102 cumulative IPC: 3.11443 (Simulation time: 0 hr 9 min 42 sec) 
Heartbeat CPU 0 instructions: 30000000 cycles: 9624692 heartbeat IPC: 3.12209 cumulative IPC: 3.11698 (Simulation time: 0 hr 13 min 25 sec) 
Heartbeat CPU 0 instructions: 40000001 cycles: 12830187 heartbeat IPC: 3.11964 cumulative IPC: 3.11765 (Simulation time: 0 hr 17 min 5 sec) 
Heartbeat CPU 0 instructions: 50000000 cycles: 16045918 heartbeat IPC: 3.10971 cumulative IPC: 3.11606 (Simulation time: 0 hr 20 min 28 sec) 

Warmup complete CPU 0 instructions: 50000004 cycles: 16045919 (Simulation time: 0 hr 20 min 28 sec) 

% increase in all ip prefetch 505.491
% increase in all ip prefetch 5.42653
% increase in all ip prefetch 12.735
% increase in all ip prefetch 15.5442
% increase in all ip prefetch 15.6662
Heartbeat CPU 0 instructions: 60000000 cycles: 37027028 heartbeat IPC: 0.476619 cumulative IPC: 0.476619 (Simulation time: 0 hr 25 min 17 sec) 
Heartbeat CPU 0 instructions: 70000002 cycles: 57915128 heartbeat IPC: 0.478742 cumulative IPC: 0.477678 (Simulation time: 0 hr 30 min 5 sec) 
Heartbeat CPU 0 instructions: 80000002 cycles: 78712915 heartbeat IPC: 0.48082 cumulative IPC: 0.478721 (Simulation time: 0 hr 34 min 32 sec) 
Heartbeat CPU 0 instructions: 90000003 cycles: 99491329 heartbeat IPC: 0.481269 cumulative IPC: 0.479355 (Simulation time: 0 hr 36 min 56 sec) 
Heartbeat CPU 0 instructions: 100000002 cycles: 120335701 heartbeat IPC: 0.479746 cumulative IPC: 0.479433 (Simulation time: 0 hr 38 min 50 sec) 
Finished CPU 0 instructions: 50000002 cycles: 104289783 cumulative IPC: 0.479433 (Simulation time: 0 hr 38 min 50 sec) 

ChampSim completed all CPUs

Region of Interest Statistics

CPU 0 cumulative IPC: 0.479433 instructions: 50000002 cycles: 104289783

CPU 0 Average Load ROB stall cycles: 9.38827e+06
CPU 0 Fraction of times ROB stalled by Loads: 13.7796
CPU 0 Percentage of Load stall cycles in Total stall cycles: 1.0008e+08
 Total stall cycles: 46784421
 Total load stall cycles: 46821810795236
CPU 0 NUM of IPS identified critical: 1893
CPU 0 Num of Load IPs stalling ROB: 2153
Threshold modification factor: 0
Max PIST entries: 64
Min PIST entries: 0
Avg PIST entries: 18.36
Trouble in retire width: 0.850009
MaC = Marked as critical.
lt_50_percent_before_Mac: 1054
gt_90_percent_before_Mac: 25
gt_75_percent_before_Mac: 119
gt_50_percent_before_Mac: 453
stall_proportion_bin_same_before_after: 0
stall_proportion_bin_lower_before_after: 0
stall_proportion_bin_upper_before_after: 0
average_stall_proportion_before: 0.0636517
average_stall_proportion_after: 0.0644573
Critical IP stalls, total frequency: 666960
Non-critical IP stalls, total frequency: 5884
Critical_IP_ROB_Stalls_Bucket_0: 150861
Non-critical_IP_ROB_Stalls_Bucket_0: 10687
Critical_IP_ROB_Stalls_Bucket_1: 142103
Non-critical_IP_ROB_Stalls_Bucket_1: 4703
Critical_IP_ROB_Stalls_Bucket_2: 102027
Non-critical_IP_ROB_Stalls_Bucket_2: 2609
Critical_IP_ROB_Stalls_Bucket_3: 60704
Non-critical_IP_ROB_Stalls_Bucket_3: 1655
Critical_IP_ROB_Stalls_Bucket_4: 44650
Non-critical_IP_ROB_Stalls_Bucket_4: 310
Critical_IP_ROB_Stalls_Bucket_5: 45723
Non-critical_IP_ROB_Stalls_Bucket_5: 262
Critical_IP_ROB_Stalls_Bucket_6: 120892
Non-critical_IP_ROB_Stalls_Bucket_6: 37
0 => IPs accounting for >50 percent of stalls, 1 => 55, 2 => 60, 3 => 65 and so on till 90.
percent50: 50.1183 num IPs:14
percent55: 55.1223 num IPs:28
percent60: 60.0561 num IPs:43
percent65: 65.1537 num IPs:60
percent70: 70.1389 num IPs:79
percent75: 75.0884 num IPs:102
percent80: 80.0712 num IPs:132
percent85: 85.0031 num IPs:177
percent90: 90.0229 num IPs:274
Critical_ROB_Stalls_Percent_0_Bucket_0: 40556
Non-critical_ROB_Stalls_Percent_0_Bucket_0: 120992
Critical_ROB_Stalls_Percent_0_Bucket_1: 46798
Non-critical_ROB_Stalls_Percent_0_Bucket_1: 100008
Critical_ROB_Stalls_Percent_0_Bucket_2: 46069
Non-critical_ROB_Stalls_Percent_0_Bucket_2: 58567
Critical_ROB_Stalls_Percent_0_Bucket_3: 37905
Non-critical_ROB_Stalls_Percent_0_Bucket_3: 24454
Critical_ROB_Stalls_Percent_0_Bucket_4: 35405
Non-critical_ROB_Stalls_Percent_0_Bucket_4: 9555
Critical_ROB_Stalls_Percent_0_Bucket_5: 36293
Non-critical_ROB_Stalls_Percent_0_Bucket_5: 9692
Critical_ROB_Stalls_Percent_0_Bucket_6: 94192
Non-critical_ROB_Stalls_Percent_0_Bucket_6: 26737
Critical_ROB_Stalls_Percent_1_Bucket_0: 46896
Non-critical_ROB_Stalls_Percent_1_Bucket_0: 114652
Critical_ROB_Stalls_Percent_1_Bucket_1: 56764
Non-critical_ROB_Stalls_Percent_1_Bucket_1: 90042
Critical_ROB_Stalls_Percent_1_Bucket_2: 51533
Non-critical_ROB_Stalls_Percent_1_Bucket_2: 53103
Critical_ROB_Stalls_Percent_1_Bucket_3: 42072
Non-critical_ROB_Stalls_Percent_1_Bucket_3: 20287
Critical_ROB_Stalls_Percent_1_Bucket_4: 36161
Non-critical_ROB_Stalls_Percent_1_Bucket_4: 8799
Critical_ROB_Stalls_Percent_1_Bucket_5: 37453
Non-critical_ROB_Stalls_Percent_1_Bucket_5: 8532
Critical_ROB_Stalls_Percent_1_Bucket_6: 100008
Non-critical_ROB_Stalls_Percent_1_Bucket_6: 20921
Critical_ROB_Stalls_Percent_2_Bucket_0: 62058
Non-critical_ROB_Stalls_Percent_2_Bucket_0: 99490
Critical_ROB_Stalls_Percent_2_Bucket_1: 64232
Non-critical_ROB_Stalls_Percent_2_Bucket_1: 82574
Critical_ROB_Stalls_Percent_2_Bucket_2: 59104
Non-critical_ROB_Stalls_Percent_2_Bucket_2: 45532
Critical_ROB_Stalls_Percent_2_Bucket_3: 44390
Non-critical_ROB_Stalls_Percent_2_Bucket_3: 17969
Critical_ROB_Stalls_Percent_2_Bucket_4: 36230
Non-critical_ROB_Stalls_Percent_2_Bucket_4: 8730
Critical_ROB_Stalls_Percent_2_Bucket_5: 37999
Non-critical_ROB_Stalls_Percent_2_Bucket_5: 7986
Critical_ROB_Stalls_Percent_2_Bucket_6: 100071
Non-critical_ROB_Stalls_Percent_2_Bucket_6: 20858
Critical_ROB_Stalls_Percent_3_Bucket_0: 69788
Non-critical_ROB_Stalls_Percent_3_Bucket_0: 91760
Critical_ROB_Stalls_Percent_3_Bucket_1: 78847
Non-critical_ROB_Stalls_Percent_3_Bucket_1: 67959
Critical_ROB_Stalls_Percent_3_Bucket_2: 66978
Non-critical_ROB_Stalls_Percent_3_Bucket_2: 37658
Critical_ROB_Stalls_Percent_3_Bucket_3: 45714
Non-critical_ROB_Stalls_Percent_3_Bucket_3: 16645
Critical_ROB_Stalls_Percent_3_Bucket_4: 38195
Non-critical_ROB_Stalls_Percent_3_Bucket_4: 6765
Critical_ROB_Stalls_Percent_3_Bucket_5: 38748
Non-critical_ROB_Stalls_Percent_3_Bucket_5: 7237
Critical_ROB_Stalls_Percent_3_Bucket_6: 100113
Non-critical_ROB_Stalls_Percent_3_Bucket_6: 20816
Critical_ROB_Stalls_Percent_4_Bucket_0: 81410
Non-critical_ROB_Stalls_Percent_4_Bucket_0: 80138
Critical_ROB_Stalls_Percent_4_Bucket_1: 88161
Non-critical_ROB_Stalls_Percent_4_Bucket_1: 58645
Critical_ROB_Stalls_Percent_4_Bucket_2: 72887
Non-critical_ROB_Stalls_Percent_4_Bucket_2: 31749
Critical_ROB_Stalls_Percent_4_Bucket_3: 47371
Non-critical_ROB_Stalls_Percent_4_Bucket_3: 14988
Critical_ROB_Stalls_Percent_4_Bucket_4: 38458
Non-critical_ROB_Stalls_Percent_4_Bucket_4: 6502
Critical_ROB_Stalls_Percent_4_Bucket_5: 39817
Non-critical_ROB_Stalls_Percent_4_Bucket_5: 6168
Critical_ROB_Stalls_Percent_4_Bucket_6: 103821
Non-critical_ROB_Stalls_Percent_4_Bucket_6: 17108
Critical_ROB_Stalls_Percent_5_Bucket_0: 96837
Non-critical_ROB_Stalls_Percent_5_Bucket_0: 64711
Critical_ROB_Stalls_Percent_5_Bucket_1: 93914
Non-critical_ROB_Stalls_Percent_5_Bucket_1: 52892
Critical_ROB_Stalls_Percent_5_Bucket_2: 79120
Non-critical_ROB_Stalls_Percent_5_Bucket_2: 25516
Critical_ROB_Stalls_Percent_5_Bucket_3: 49642
Non-critical_ROB_Stalls_Percent_5_Bucket_3: 12717
Critical_ROB_Stalls_Percent_5_Bucket_4: 38990
Non-critical_ROB_Stalls_Percent_5_Bucket_4: 5970
Critical_ROB_Stalls_Percent_5_Bucket_5: 41333
Non-critical_ROB_Stalls_Percent_5_Bucket_5: 4652
Critical_ROB_Stalls_Percent_5_Bucket_6: 105392
Non-critical_ROB_Stalls_Percent_5_Bucket_6: 15537
Critical_ROB_Stalls_Percent_6_Bucket_0: 109797
Non-critical_ROB_Stalls_Percent_6_Bucket_0: 51751
Critical_ROB_Stalls_Percent_6_Bucket_1: 101425
Non-critical_ROB_Stalls_Percent_6_Bucket_1: 45381
Critical_ROB_Stalls_Percent_6_Bucket_2: 82153
Non-critical_ROB_Stalls_Percent_6_Bucket_2: 22483
Critical_ROB_Stalls_Percent_6_Bucket_3: 51853
Non-critical_ROB_Stalls_Percent_6_Bucket_3: 10506
Critical_ROB_Stalls_Percent_6_Bucket_4: 41422
Non-critical_ROB_Stalls_Percent_6_Bucket_4: 3538
Critical_ROB_Stalls_Percent_6_Bucket_5: 41660
Non-critical_ROB_Stalls_Percent_6_Bucket_5: 4325
Critical_ROB_Stalls_Percent_6_Bucket_6: 110444
Non-critical_ROB_Stalls_Percent_6_Bucket_6: 10485
Critical_ROB_Stalls_Percent_7_Bucket_0: 121383
Non-critical_ROB_Stalls_Percent_7_Bucket_0: 40165
Critical_ROB_Stalls_Percent_7_Bucket_1: 112006
Non-critical_ROB_Stalls_Percent_7_Bucket_1: 34800
Critical_ROB_Stalls_Percent_7_Bucket_2: 87200
Non-critical_ROB_Stalls_Percent_7_Bucket_2: 17436
Critical_ROB_Stalls_Percent_7_Bucket_3: 54866
Non-critical_ROB_Stalls_Percent_7_Bucket_3: 7493
Critical_ROB_Stalls_Percent_7_Bucket_4: 41674
Non-critical_ROB_Stalls_Percent_7_Bucket_4: 3286
Critical_ROB_Stalls_Percent_7_Bucket_5: 42433
Non-critical_ROB_Stalls_Percent_7_Bucket_5: 3552
Critical_ROB_Stalls_Percent_7_Bucket_6: 112376
Non-critical_ROB_Stalls_Percent_7_Bucket_6: 8553
Critical_ROB_Stalls_Percent_8_Bucket_0: 134961
Non-critical_ROB_Stalls_Percent_8_Bucket_0: 26587
Critical_ROB_Stalls_Percent_8_Bucket_1: 121674
Non-critical_ROB_Stalls_Percent_8_Bucket_1: 25132
Critical_ROB_Stalls_Percent_8_Bucket_2: 91085
Non-critical_ROB_Stalls_Percent_8_Bucket_2: 13551
Critical_ROB_Stalls_Percent_8_Bucket_3: 57291
Non-critical_ROB_Stalls_Percent_8_Bucket_3: 5068
Critical_ROB_Stalls_Percent_8_Bucket_4: 42592
Non-critical_ROB_Stalls_Percent_8_Bucket_4: 2368
Critical_ROB_Stalls_Percent_8_Bucket_5: 43111
Non-critical_ROB_Stalls_Percent_8_Bucket_5: 2874
Critical_ROB_Stalls_Percent_8_Bucket_6: 115000
Non-critical_ROB_Stalls_Percent_8_Bucket_6: 5929
Average ROB occupancy Load Stall Begin: 142.147
Average ROB occupancy Load Stall End: 150.396
Min ROB occupancy Load Stall Begin: 1
Max ROB occupancy Load Stall Begin: 351
Min ROB occupancy Load Stall End: 1
Max ROB occupancy Load Stall End: 352
Average ROB occupancy Critical Load Stall Begin: 156.236
Average ROB occupancy Critical Load Stall End: 164.431
Min ROB occupancy Critical Load Stall Begin: 1
Max ROB occupancy Critical Load Stall Begin: 351
Min ROB occupancy Critical Load Stall End: 1
Max ROB occupancy Critical Load Stall End: 352
 ROB Load Stall Begin Bucket Count 0: 202119
 ROB Load Stall End Bucket Count 0: 161548
 ROB Critical Load Stall Begin Bucket Count 0: 139631
 ROB Critical Load Stall End Bucket Count 0: 107656
 ROB Load Stall Begin Bucket Count 1: 131598
 ROB Load Stall End Bucket Count 1: 146806
 ROB Critical Load Stall Begin Bucket Count 1: 98687
 ROB Critical Load Stall End Bucket Count 1: 110636
 ROB Load Stall Begin Bucket Count 2: 96802
 ROB Load Stall End Bucket Count 2: 104636
 ROB Critical Load Stall Begin Bucket Count 2: 79973
 ROB Critical Load Stall End Bucket Count 2: 85750
 ROB Load Stall Begin Bucket Count 3: 55467
 ROB Load Stall End Bucket Count 3: 62359
 ROB Critical Load Stall Begin Bucket Count 3: 48775
 ROB Critical Load Stall End Bucket Count 3: 54028
 ROB Load Stall Begin Bucket Count 4: 42498
 ROB Load Stall End Bucket Count 4: 44960
 ROB Critical Load Stall Begin Bucket Count 4: 40138
 ROB Critical Load Stall End Bucket Count 4: 42108
 ROB Load Stall Begin Bucket Count 5: 45329
 ROB Load Stall End Bucket Count 5: 45985
 ROB Critical Load Stall Begin Bucket Count 5: 42066
 ROB Critical Load Stall End Bucket Count 5: 42804
 ROB Load Stall Begin Bucket Count 6: 113410
 ROB Load Stall End Bucket Count 6: 120929
 ROB Critical Load Stall Begin Bucket Count 6: 107839
 ROB Critical Load Stall End Bucket Count 6: 114127
PIST Tag Read Accesses: 104746
PIST Read Accesses: 52373
PIST Tag Write Accesses: 104746
PIST Write Accesses: 52373
Criticality detector called times: 59426
Max global_stall_cycles_count: 520809
Threshold Modified: 5 times, factor: 0
ITLB TOTAL     ACCESS:   10415360  HIT:    9942739  MISS:     472621  HIT %:    95.4623  MISS %:    4.53773   MPKI: 9.45242
ITLB LOAD TRANSLATION ACCESS:    8470852  HIT:    8461929  MISS:       8923  HIT %:    99.8947  MISS %:   0.105338   MPKI: 0.17846
ITLB TRANSLATION FROM L1D PREFETCHER ACCESS:    1944508  HIT:    1480810  MISS:     463698  HIT %:    76.1535  MISS %:    23.8465   MPKI: 9.27396
ITLB PREFETCH  REQUESTED:          0  ISSUED:          0  USEFUL:     413249  USELESS:      50450
ITLB USEFUL LOAD PREFETCHES:     413249 PREFETCH ISSUED TO LOWER LEVEL:          0  ACCURACY: inf
ITLB TIMELY PREFETCHES:     413249 LATE PREFETCHES: 311 DROPPED PREFETCHES: 0
ITLB PREFETCHES SAME FILL-ORIGIN LEVEL: 0 DIFFERENT FILL-ORIGIN LEVEL: 0
ITLB AVERAGE MISS LATENCY: 45336.5 cycles
ITLB RQ	ACCESS:   14904226	FORWARD:          0	MERGED:    4439331	TO_CACHE:   10464895

DTLB TOTAL     ACCESS:   10812338  HIT:   10392316  MISS:     420022  HIT %:    96.1153  MISS %:    3.88465   MPKI: 8.40044
DTLB LOAD TRANSLATION ACCESS:   10812338  HIT:   10392316  MISS:     420022  HIT %:    96.1153  MISS %:    3.88465   MPKI: 8.40044
DTLB PREFETCH  REQUESTED:          0  ISSUED:          0  USEFUL:          0  USELESS:          0
DTLB USEFUL LOAD PREFETCHES:          0 PREFETCH ISSUED TO LOWER LEVEL:          0  ACCURACY: -nan
DTLB TIMELY PREFETCHES:          0 LATE PREFETCHES: 0 DROPPED PREFETCHES: 0
DTLB PREFETCHES SAME FILL-ORIGIN LEVEL: 0 DIFFERENT FILL-ORIGIN LEVEL: 0
DTLB AVERAGE MISS LATENCY: 21.0193 cycles
DTLB RQ	ACCESS:   16043133	FORWARD:          0	MERGED:    5147333	TO_CACHE:   10895800

STLB TOTAL     ACCESS:     892643  HIT:     859423  MISS:      33220  HIT %:    96.2785  MISS %:    3.72153   MPKI: 0.6644
STLB LOAD TRANSLATION ACCESS:     428634  HIT:     396203  MISS:      32431  HIT %:    92.4339  MISS %:    7.56613   MPKI: 0.64862
STLB TRANSLATION FROM L1D PREFETCHER ACCESS:     464009  HIT:     463220  MISS:        789  HIT %:      99.83  MISS %:    0.17004   MPKI: 0.01578
STLB PREFETCH  REQUESTED:          0  ISSUED:          0  USEFUL:        487  USELESS:        287
STLB USEFUL LOAD PREFETCHES:        487 PREFETCH ISSUED TO LOWER LEVEL:          0  ACCURACY: inf
STLB TIMELY PREFETCHES:        487 LATE PREFETCHES: 0 DROPPED PREFETCHES: 0
STLB PREFETCHES SAME FILL-ORIGIN LEVEL: 0 DIFFERENT FILL-ORIGIN LEVEL: 0
STLB AVERAGE MISS LATENCY: 160.448 cycles
STLB RQ	ACCESS:     892643	FORWARD:          0	MERGED:          0	TO_CACHE:     892643

STLB Hit, L1D data hit: 0
STLB Hit, L2C data hit: 0
STLB Hit, LLC data hit: 0
STLB Hit, LLC data miss: 0
STLB STLB hints to L2: 0
L1D TOTAL     ACCESS:   13470241  HIT:   11677355  MISS:    1792886  HIT %:      86.69  MISS %:      13.31   MPKI: 35.8577
L1D LOAD      ACCESS:    7385804  HIT:    6553798  MISS:     832006  HIT %:    88.7351  MISS %:    11.2649   MPKI: 16.6401
L1D RFO       ACCESS:    6084437  HIT:    5123557  MISS:     960880  HIT %:    84.2076  MISS %:    15.7924   MPKI: 19.2176
L1D PREFETCH  REQUESTED:          0  ISSUED:          0  USEFUL:          0  USELESS:          0
L1D USEFUL LOAD PREFETCHES:          0 PREFETCH ISSUED TO LOWER LEVEL:          0  ACCURACY: -nan
L1D TIMELY PREFETCHES:          0 LATE PREFETCHES: 0 DROPPED PREFETCHES: 0
L1D PREFETCHES SAME FILL-ORIGIN LEVEL: 0 DIFFERENT FILL-ORIGIN LEVEL: 0
L1D AVERAGE MISS LATENCY: 160.079 cycles
L1D RQ	ACCESS:   11045113	FORWARD:          0	MERGED:    3501671	TO_CACHE:    7421868
L1D WQ	ACCESS:    8713551	FORWARD:     121574	MERGED:      92286	TO_CACHE:    8621265

L1D UNIQUE REGIONS ACCESSED: 0
L1D REGIONS CONFLICTS: 0
L1D Cross Page Prefetch Requests: 0
L1D Same Page Prefetch Requests: 0
L1D ROI Sum of L1D PQ occupancy: 0
L1D PREFETCHES PUSHED FROM L2C: 0
L1I TOTAL     ACCESS:   14824889  HIT:   11692294  MISS:    3132595  HIT %:    78.8694  MISS %:    21.1306   MPKI: 62.6519
L1I LOAD      ACCESS:    9878608  HIT:    9854272  MISS:      24336  HIT %:    99.7536  MISS %:    0.24635   MPKI: 0.48672
L1I PREFETCH  ACCESS:    4946281  HIT:    1838022  MISS:    3108259  HIT %:    37.1597  MISS %:    62.8403   MPKI: 62.1652
L1I PREFETCH  REQUESTED:    5197569  ISSUED:    5190447  USEFUL:    2605314  USELESS:     503003
L1I USEFUL LOAD PREFETCHES:    2605314 PREFETCH ISSUED TO LOWER LEVEL:    3125794  ACCURACY: 83.3489
L1I TIMELY PREFETCHES:    2605314 LATE PREFETCHES: 9754 DROPPED PREFETCHES: 0
L1I PREFETCHES SAME FILL-ORIGIN LEVEL: 3125794 DIFFERENT FILL-ORIGIN LEVEL: 0
L1I AVERAGE MISS LATENCY: 208464 cycles
L1I RQ	ACCESS:   14161630	FORWARD:          0	MERGED:    4278152	TO_CACHE:    9883478
L1I PQ	ACCESS:    5190447	FORWARD:          0	MERGED:     169699	TO_CACHE:    5020748

BTB TOTAL     ACCESS:    5333119  HIT:    5067879  MISS:     265240  HIT %:    95.0266  MISS %:    4.97345   MPKI: 5.3048
BTB BRANCH_DIRECT_JUMP	ACCESS:     458219  HIT:     456490  MISS:       1729
BTB BRANCH_INDIRECT	ACCESS:      49088  HIT:      48920  MISS:        168
BTB BRANCH_CONDITIONAL	ACCESS:    3001358  HIT:    2995715  MISS:       5643
BTB BRANCH_DIRECT_CALL	ACCESS:     745129  HIT:     741537  MISS:       3592
BTB BRANCH_INDIRECT_CALL	ACCESS:     167106  HIT:     138209  MISS:      28897
BTB BRANCH_RETURN	ACCESS:     912219  HIT:     687008  MISS:     225211
BTB BRANCH_OTHER ACCESS:          0  HIT:          0  MISS:          0

L2C TOTAL     ACCESS:    7725179  HIT:    5925463  MISS:    1799716  HIT %:    76.7032  MISS %:    23.2968   MPKI: 35.9943
L2C LOAD      ACCESS:     846576  HIT:     364053  MISS:     482523  HIT %:     43.003  MISS %:     56.997   MPKI: 9.65046
L2C DATA LOAD MPKI: 9.55548
L2C INSTRUCTION LOAD MPKI: 0.09498
L2C RFO       ACCESS:     960880  HIT:      32946  MISS:     927934  HIT %:    3.42873  MISS %:    96.5713   MPKI: 18.5587
L2C PREFETCH  ACCESS:    4731183  HIT:    4417238  MISS:     313945  HIT %:    93.3643  MISS %:    6.63566   MPKI: 6.2789
L2C DATA PREFETCH MPKI: 3.3081
L2C INSTRUCTION PREFETCH MPKI: 2.9708
L2C WRITEBACK ACCESS:    1149723  HIT:    1094791  MISS:      54932  HIT %:    95.2222  MISS %:    4.77785   MPKI: 1.09864
L2C LOAD TRANSLATION ACCESS:      35665  HIT:      16146  MISS:      19519  HIT %:    45.2713  MISS %:    54.7287   MPKI: 0.39038
L2C TRANSLATION FROM L1D PREFETCHER ACCESS:       1152  HIT:        289  MISS:        863  HIT %:    25.0868  MISS %:    74.9132   MPKI: 0.01726
L2C PREFETCH  REQUESTED:    6999562  ISSUED:    6987637  USEFUL:     159098  USELESS:     155014
L2C USEFUL LOAD PREFETCHES:     159098 PREFETCH ISSUED TO LOWER LEVEL:    2874097  ACCURACY: 5.53558
L2C TIMELY PREFETCHES:     159098 LATE PREFETCHES: 1705 DROPPED PREFETCHES: 0
L2C PREFETCHES SAME FILL-ORIGIN LEVEL: 167196 DIFFERENT FILL-ORIGIN LEVEL: 2558447
L2C AVERAGE MISS LATENCY: 154.839 cycles
L2C RQ	ACCESS:    1844285	FORWARD:          0	MERGED:          0	TO_CACHE:    1844273
L2C WQ	ACCESS:    1149723	FORWARD:         12	MERGED:          0	TO_CACHE:    1149723
L2C PQ	ACCESS:   10105650	FORWARD:          0	MERGED:    2762876	TO_CACHE:    7342774

L2C Instructions Evicting Data 139390
L2C Translations Evicting Data 18661
L2C Data Evicting Data 1418871
L2C Instructions Evicting Instructions 12365
L2C Translations Evicting Instructions 1481
L2C Data Evicting Instructions 134070
L2C Instructions Evicting Translations 1534
L2C Translations Evicting Translations 240
L2C Data Evicting Translations 18172
L2C Dense regions hint from L2: 0
PSCL5 TOTAL     ACCESS:      33220  HIT:      33220  MISS:          0  HIT %:        100  MISS %:          0   MPKI: 0
PSCL5 LOAD TRANSLATION ACCESS:      32431  HIT:      32431  MISS:          0  HIT %:        100  MISS %:          0   MPKI: 0
PSCL5 TRANSLATION FROM L1D PREFETCHER ACCESS:        789  HIT:        789  MISS:          0  HIT %:        100  MISS %:          0   MPKI: 0
PSCL5 PREFETCH  REQUESTED:          0  ISSUED:          0  USEFUL:          0  USELESS:          0
PSCL5 USEFUL LOAD PREFETCHES:          0 PREFETCH ISSUED TO LOWER LEVEL:          0  ACCURACY: -nan
PSCL5 TIMELY PREFETCHES:          0 LATE PREFETCHES: 0 DROPPED PREFETCHES: 0
PSCL5 PREFETCHES SAME FILL-ORIGIN LEVEL: 0 DIFFERENT FILL-ORIGIN LEVEL: 0

PSCL4 TOTAL     ACCESS:      32486  HIT:      32382  MISS:        104  HIT %:    99.6799  MISS %:   0.320138   MPKI: 0.00208
PSCL4 LOAD TRANSLATION ACCESS:      31736  HIT:      31632  MISS:        104  HIT %:    99.6723  MISS %:   0.327704   MPKI: 0.00208
PSCL4 TRANSLATION FROM L1D PREFETCHER ACCESS:        750  HIT:        750  MISS:          0  HIT %:        100  MISS %:          0   MPKI: 0
PSCL4 PREFETCH  REQUESTED:          0  ISSUED:          0  USEFUL:          0  USELESS:          0
PSCL4 USEFUL LOAD PREFETCHES:          0 PREFETCH ISSUED TO LOWER LEVEL:          0  ACCURACY: -nan
PSCL4 TIMELY PREFETCHES:          0 LATE PREFETCHES: 0 DROPPED PREFETCHES: 0
PSCL4 PREFETCHES SAME FILL-ORIGIN LEVEL: 0 DIFFERENT FILL-ORIGIN LEVEL: 0

PSCL3 TOTAL     ACCESS:      32860  HIT:      32756  MISS:        104  HIT %:    99.6835  MISS %:   0.316494   MPKI: 0.00208
PSCL3 LOAD TRANSLATION ACCESS:      32110  HIT:      32006  MISS:        104  HIT %:    99.6761  MISS %:   0.323887   MPKI: 0.00208
PSCL3 TRANSLATION FROM L1D PREFETCHER ACCESS:        750  HIT:        750  MISS:          0  HIT %:        100  MISS %:          0   MPKI: 0
PSCL3 PREFETCH  REQUESTED:          0  ISSUED:          0  USEFUL:          0  USELESS:          0
PSCL3 USEFUL LOAD PREFETCHES:          0 PREFETCH ISSUED TO LOWER LEVEL:          0  ACCURACY: -nan
PSCL3 TIMELY PREFETCHES:          0 LATE PREFETCHES: 0 DROPPED PREFETCHES: 0
PSCL3 PREFETCHES SAME FILL-ORIGIN LEVEL: 0 DIFFERENT FILL-ORIGIN LEVEL: 0

PSCL2 TOTAL     ACCESS:      33220  HIT:      29808  MISS:       3412  HIT %:    89.7291  MISS %:    10.2709   MPKI: 0.06824
PSCL2 LOAD TRANSLATION ACCESS:      32730  HIT:      29318  MISS:       3412  HIT %:    89.5753  MISS %:    10.4247   MPKI: 0.06824
PSCL2 TRANSLATION FROM L1D PREFETCHER ACCESS:        490  HIT:        490  MISS:          0  HIT %:        100  MISS %:          0   MPKI: 0
PSCL2 PREFETCH  REQUESTED:          0  ISSUED:          0  USEFUL:          0  USELESS:          0
PSCL2 USEFUL LOAD PREFETCHES:          0 PREFETCH ISSUED TO LOWER LEVEL:          0  ACCURACY: -nan
PSCL2 TIMELY PREFETCHES:          0 LATE PREFETCHES: 0 DROPPED PREFETCHES: 0
PSCL2 PREFETCHES SAME FILL-ORIGIN LEVEL: 0 DIFFERENT FILL-ORIGIN LEVEL: 0

LLC TOTAL     ACCESS:    5062626  HIT:    2957980  MISS:    2104646  HIT %:    58.4278  MISS %:    41.5722   MPKI: 42.0929
LLC LOAD      ACCESS:     480860  HIT:     383515  MISS:      97345  HIT %:    79.7561  MISS %:    20.2439   MPKI: 1.9469
LLC RFO       ACCESS:     927892  HIT:     142083  MISS:     785809  HIT %:    15.3125  MISS %:    84.6875   MPKI: 15.7162
LLC PREFETCH  ACCESS:    2554676  HIT:    2141287  MISS:     413389  HIT %:    83.8183  MISS %:    16.1817   MPKI: 8.26778
LLC WRITEBACK ACCESS:    1078816  HIT:     283867  MISS:     794949  HIT %:    26.3128  MISS %:    73.6872   MPKI: 15.899
LLC LOAD TRANSLATION ACCESS:      19519  HIT:       7008  MISS:      12511  HIT %:    35.9035  MISS %:    64.0965   MPKI: 0.25022
LLC TRANSLATION FROM L1D PREFETCHER ACCESS:        863  HIT:        220  MISS:        643  HIT %:    25.4925  MISS %:    74.5075   MPKI: 0.01286
LLC PREFETCH  REQUESTED:          0  ISSUED:          0  USEFUL:     134137  USELESS:     280084
LLC USEFUL LOAD PREFETCHES:     134137 PREFETCH ISSUED TO LOWER LEVEL:     423994  ACCURACY: 31.6365
LLC TIMELY PREFETCHES:     134137 LATE PREFETCHES: 10605 DROPPED PREFETCHES: 0
LLC PREFETCHES SAME FILL-ORIGIN LEVEL: 403750 DIFFERENT FILL-ORIGIN LEVEL: 0
LLC AVERAGE MISS LATENCY: 143.44 cycles
LLC RQ	ACCESS:    1429134	FORWARD:          0	MERGED:          0	TO_CACHE:    1429134
LLC WQ	ACCESS:    1078816	FORWARD:          0	MERGED:          0	TO_CACHE:    1078816
LLC PQ	ACCESS:    2874097	FORWARD:          0	MERGED:       4767	TO_CACHE:    2869330

LLC Dense regions hint to LLC: 0

RAW hits: 1359759
Loads Generated: 12404873
Loads sent to L1D: 11045113
Stores Generated: 8713494
Stores sent to L1D: 8713551
Major fault: 0 Minor fault: 22230
Allocated PAGES: 22230
I-Shadow cache 408 bytes
Touched + WorthPF tables 6144 bytes 
MMA filter 174 bytes 
FNL filter 272 bytes 
TOTAL PREFETCHER STORAGE SIZE: 25174 bytes
CPU 0 L1I next line prefetcher final stats
 All Calls: 7768489
 Critical Calls: 7768489
------------------
Depth Distribution
------------------
depth 0: 0
depth 1: 7408222
depth 2: 3723933
depth 3: 1353637
depth 4: 646096
depth 5: 453204
depth 6: 280318
depth 7: 143081
depth 8: 68700
depth 9: 9412
depth 10: 974
depth 11: 267
depth 12: 100
depth 13: 30
depth 14: 7
depth 15: 3
depth 16: 0
depth 17: 0
depth 18: 0
depth 19: 0
depth 20: 0
depth 21: 0
depth 22: 0
depth 23: 0
depth 24: 0
depth 25: 0
depth 26: 0
depth 27: 0
depth 28: 0
depth 29: 0
Total: 14087984
-----------------------------
-----------------------------
	Captured at Filter
-----------------------------
depth 0: 0
depth 1: 703543
depth 2: 487315
depth 3: 256406
depth 4: 112805
depth 5: 21745
depth 6: 4769
depth 7: 1263
depth 8: 238
depth 9: 46
depth 10: 12
depth 11: 6
depth 12: 1
depth 13: 0
depth 14: 0
depth 15: 0
depth 16: 0
depth 17: 0
depth 18: 0
depth 19: 0
depth 20: 0
depth 21: 0
depth 22: 0
depth 23: 0
depth 24: 0
depth 25: 0
depth 26: 0
depth 27: 0
depth 28: 0
depth 29: 0
-----------------------------
-----------------------------
		Lost at Page
-----------------------------
depth 0: 0
depth 1: 384663
depth 2: 146395
depth 3: 52282
depth 4: 33146
depth 5: 33789
depth 6: 27541
depth 7: 17173
depth 8: 9603
depth 9: 1438
depth 10: 174
depth 11: 54
depth 12: 26
depth 13: 6
depth 14: 1
depth 15: 2
depth 16: 0
depth 17: 0
depth 18: 0
depth 19: 0
depth 20: 0
depth 21: 0
depth 22: 0
depth 23: 0
depth 24: 0
depth 25: 0
depth 26: 0
depth 27: 0
depth 28: 0
depth 29: 0
-----------------------------
-----------------------------
	Lost due to PQ Size
-----------------------------
153412
-----------------------------
ST read accesses: 3776695
ST write accesses: 110238
PT read accesses: 63560765
PT write accesses: 5452223
FILTER read accesses: 13457579
FILTER write accesses: 2390623
GHR read accesses: 3298680
GHR write accesses: 360700
GHR counter read accesses: 53468662
GHR counter write accesses: 4475889
ST tag read accesses: 1553722959
ST tag write accesses: 115527601

DRAM Statistics
 CHANNEL 0
 RQ ROW_BUFFER_HIT:     446783  ROW_BUFFER_MISS:     862828
 DBUS_CONGESTED:        525
 WQ ROW_BUFFER_HIT:     196417  ROW_BUFFER_MISS:     660792  FULL:       6925

 AVG_CONGESTED_CYCLE: 3
 All warmup complete: 2
Channel 0 Bank busy for read cycles: 0
Channel 0 Bank busy for write cycles: 0
Channel 0
Rank 0
0banks busy for read cycles: 17310580
0banks busy for write cycles: 47642
1banks busy for read cycles: 18999988
1banks busy for write cycles: 6544046
2banks busy for read cycles: 13534664
2banks busy for write cycles: 3941805
3banks busy for read cycles: 8142597
3banks busy for write cycles: 2669345
4banks busy for read cycles: 4595273
4banks busy for write cycles: 1992040
5banks busy for read cycles: 1792195
5banks busy for write cycles: 1662398
6banks busy for read cycles: 1292459
6banks busy for write cycles: 1572249
7banks busy for read cycles: 1472041
7banks busy for write cycles: 2474048
8banks busy for read cycles: 4887063
8banks busy for write cycles: 11359351

CPU 0 Branch Prediction Accuracy: 99.712% MPKI: 0.47638 Average ROB Occupancy at Mispredict: 97.4176
Branch types
NOT_BRANCH: 41729379 83.4588%
BRANCH_DIRECT_JUMP: 458219 0.916438%
BRANCH_INDIRECT: 49088 0.098176%
BRANCH_CONDITIONAL: 5938510 11.877%
BRANCH_DIRECT_CALL: 745129 1.49026%
BRANCH_INDIRECT_CALL: 167106 0.334212%
BRANCH_RETURN: 912219 1.82444%
BRANCH_OTHER: 0 0%

DRAM PAGES: 1048576
Allocated PAGES: 22230
