
*** ChampSim Multicore Out-of-Order Simulator ***

Warmup Instructions: 50000000
Simulation Instructions: 50000000
Number of CPUs: 1
LLC sets: 2048
LLC ways: 16
Off-chip DRAM Size: 4096 MB Channels: 1 Width: 64-bit Data Rate: 6400 MT/s
CPU 0 runs ../IPC-traces//server_009.champsimtrace.xz
.xz
NUM_OF_IPS_IN_CRITICAL_IP_TRAINING: 64
NUM_OF_CRITICAL_IP_TRAINING_TABLE_WAYS: 2
NUM_OF_CRITICAL_IP_TRAINING_TABLE_SETS: 32
WOBBLY_CRITICAL_IP_CACHE_SETS: 32
WOBBLY_CRITICAL_IP_CACHE_WAYS: 4
BTB has LRU replacement policy
ITLB has LRU replacement policy
DTLB has LRU replacement policy
STLB has LRU replacement policy
CPU 0 L1I next line prefetcher
L1I has LRU replacement policy
IP Table Entries: 64
L1D has LRU replacement policy
Initialize SRRIP state for L2C
Initialize DRRIP state for LLC
Heartbeat CPU 0 instructions: 10000001 cycles: 2763876 heartbeat IPC: 3.61811 cumulative IPC: 3.61811 (Simulation time: 0 hr 3 min 9 sec) 
Heartbeat CPU 0 instructions: 20000002 cycles: 5520942 heartbeat IPC: 3.62704 cumulative IPC: 3.62257 (Simulation time: 0 hr 5 min 34 sec) 
Heartbeat CPU 0 instructions: 30000002 cycles: 8280114 heartbeat IPC: 3.62428 cumulative IPC: 3.62314 (Simulation time: 0 hr 7 min 59 sec) 
Heartbeat CPU 0 instructions: 40000003 cycles: 11041905 heartbeat IPC: 3.62084 cumulative IPC: 3.62256 (Simulation time: 0 hr 10 min 12 sec) 
Heartbeat CPU 0 instructions: 50000003 cycles: 13826502 heartbeat IPC: 3.59118 cumulative IPC: 3.61624 (Simulation time: 0 hr 12 min 12 sec) 

Warmup complete CPU 0 instructions: 50000003 cycles: 13826502 (Simulation time: 0 hr 12 min 12 sec) 

% increase in all ip prefetch 407.033
% increase in all ip prefetch 0.314052
Heartbeat CPU 0 instructions: 60000001 cycles: 35598720 heartbeat IPC: 0.459301 cumulative IPC: 0.459301 (Simulation time: 0 hr 15 min 44 sec) 
Heartbeat CPU 0 instructions: 70000001 cycles: 62792717 heartbeat IPC: 0.367728 cumulative IPC: 0.408445 (Simulation time: 0 hr 19 min 32 sec) 
Heartbeat CPU 0 instructions: 80000000 cycles: 76938174 heartbeat IPC: 0.706941 cumulative IPC: 0.475348 (Simulation time: 0 hr 22 min 4 sec) 
Heartbeat CPU 0 instructions: 90000001 cycles: 91261886 heartbeat IPC: 0.698143 cumulative IPC: 0.51656 (Simulation time: 0 hr 24 min 34 sec) 
Heartbeat CPU 0 instructions: 100000003 cycles: 105366359 heartbeat IPC: 0.708995 cumulative IPC: 0.54621 (Simulation time: 0 hr 28 min 19 sec) 
Finished CPU 0 instructions: 50000000 cycles: 91539857 cumulative IPC: 0.54621 (Simulation time: 0 hr 28 min 19 sec) 

ChampSim completed all CPUs

Region of Interest Statistics

CPU 0 cumulative IPC: 0.54621 instructions: 50000000 cycles: 91539857

CPU 0 Average Load ROB stall cycles: 2.93608e+07
CPU 0 Fraction of times ROB stalled by Loads: 51.87
CPU 0 Percentage of Load stall cycles in Total stall cycles: 2.85523e+08
Issued all: 34894097
Issued LT all: 29339165
rob_not_full_when_issued_lt_all: 21804988
Issued LT one: 23510071
rob_not_full_when_issued_lt_one: 16486374
critical_ip_candidate_identification_operations: 7841566
critical_ip_candidate_identification_operation_per_cycle: 0.0856629
 Total stall cycles: 77729249
 Total load stall cycles: 221934579108166
Unique Load IPs: 32833
CPU 0 NUM of IPS identified critical: 37
CPU 0 Num of Load IPs stalling ROB: 24639
Threshold modification factor: -1
Max PIST entries: 64
Min PIST entries: 0
Avg PIST entries: 31.64
Trouble in retire width: 0.932692
MaC = Marked as critical.
lt_50_percent_before_Mac: 32
gt_90_percent_before_Mac: 1
gt_75_percent_before_Mac: 1
gt_50_percent_before_Mac: 3
stall_proportion_bin_same_before_after: 0
stall_proportion_bin_lower_before_after: 0
stall_proportion_bin_upper_before_after: 0
average_stall_proportion_before: 0.053068
average_stall_proportion_after: 0.0579646
Critical IP stalls, total frequency: 1779836
Non-critical IP stalls, total frequency: 2140947
Total Freq all stalling IPs: 3920783
Critical_IP_Detector_Accuracy_70: 0.702703
Critical_IP_Detector_Accuracy_80: 0.756757
Critical_IP_Detector_Accuracy_90: 0.972973
Critical_IP_Detector_Coverage_70: 0.127451
Critical_IP_Detector_Coverage_80: 0.0375839
Critical_IP_Detector_Coverage_90: 0.0126939
stat_90_percent_critical_ip_stalls_freq: 3528721
stat_90_percent_non_critical_ip_stalls_freq: 392062
AVERAGE_ROB_Occupancy_90_Percent_Critical_IP_Stalls: 151.035
AVERAGE_ROB_Occupancy_90_Percent_Non_Critical_IP_Stalls: 62.7077
Critical_IP_ROB_Stalls_Bucket_0: 52204
Non-critical_IP_ROB_Stalls_Bucket_0: 1105871
Critical_IP_ROB_Stalls_Bucket_1: 156026
Non-critical_IP_ROB_Stalls_Bucket_1: 652234
Critical_IP_ROB_Stalls_Bucket_2: 224522
Non-critical_IP_ROB_Stalls_Bucket_2: 221491
Critical_IP_ROB_Stalls_Bucket_3: 242181
Non-critical_IP_ROB_Stalls_Bucket_3: 72092
Critical_IP_ROB_Stalls_Bucket_4: 243530
Non-critical_IP_ROB_Stalls_Bucket_4: 38296
Critical_IP_ROB_Stalls_Bucket_5: 251117
Non-critical_IP_ROB_Stalls_Bucket_5: 21959
Critical_IP_ROB_Stalls_Bucket_6: 610256
Non-critical_IP_ROB_Stalls_Bucket_6: 29004
0 => IPs accounting for >50 percent of stalls, 1 => 55, 2 => 60, 3 => 65 and so on till 90.
percent50: 50.1547 num IPs:  33
percent55: 55.1076 num IPs: 54
percent60: 60.0528 num IPs: 78
percent65: 65.0352 num IPs: 116
percent70: 70.0282 num IPs: 204
percent75: 75.018 num IPs: 409
percent80: 80.0032 num IPs: 745
percent85: 85.0009 num IPs: 1375
percent90: 90.0005 num IPs: 2836
Critical_ROB_Stalls_Percent_0_Bucket_0: 197339
Non-critical_ROB_Stalls_Percent_0_Bucket_0: 960736
Critical_ROB_Stalls_Percent_0_Bucket_1: 191238
Non-critical_ROB_Stalls_Percent_0_Bucket_1: 617022
Critical_ROB_Stalls_Percent_0_Bucket_2: 243041
Non-critical_ROB_Stalls_Percent_0_Bucket_2: 202972
Critical_ROB_Stalls_Percent_0_Bucket_3: 241687
Non-critical_ROB_Stalls_Percent_0_Bucket_3: 72586
Critical_ROB_Stalls_Percent_0_Bucket_4: 242418
Non-critical_ROB_Stalls_Percent_0_Bucket_4: 39408
Critical_ROB_Stalls_Percent_0_Bucket_5: 249227
Non-critical_ROB_Stalls_Percent_0_Bucket_5: 23849
Critical_ROB_Stalls_Percent_0_Bucket_6: 601506
Non-critical_ROB_Stalls_Percent_0_Bucket_6: 37754
Critical_ROB_Stalls_Percent_1_Bucket_0: 287035
Non-critical_ROB_Stalls_Percent_1_Bucket_0: 871040
Critical_ROB_Stalls_Percent_1_Bucket_1: 281990
Non-critical_ROB_Stalls_Percent_1_Bucket_1: 526270
Critical_ROB_Stalls_Percent_1_Bucket_2: 256244
Non-critical_ROB_Stalls_Percent_1_Bucket_2: 189769
Critical_ROB_Stalls_Percent_1_Bucket_3: 242018
Non-critical_ROB_Stalls_Percent_1_Bucket_3: 72255
Critical_ROB_Stalls_Percent_1_Bucket_4: 242621
Non-critical_ROB_Stalls_Percent_1_Bucket_4: 39205
Critical_ROB_Stalls_Percent_1_Bucket_5: 249236
Non-critical_ROB_Stalls_Percent_1_Bucket_5: 23840
Critical_ROB_Stalls_Percent_1_Bucket_6: 601506
Non-critical_ROB_Stalls_Percent_1_Bucket_6: 37754
Critical_ROB_Stalls_Percent_2_Bucket_0: 397330
Non-critical_ROB_Stalls_Percent_2_Bucket_0: 760745
Critical_ROB_Stalls_Percent_2_Bucket_1: 339339
Non-critical_ROB_Stalls_Percent_2_Bucket_1: 468921
Critical_ROB_Stalls_Percent_2_Bucket_2: 275356
Non-critical_ROB_Stalls_Percent_2_Bucket_2: 170657
Critical_ROB_Stalls_Percent_2_Bucket_3: 243859
Non-critical_ROB_Stalls_Percent_2_Bucket_3: 70414
Critical_ROB_Stalls_Percent_2_Bucket_4: 243816
Non-critical_ROB_Stalls_Percent_2_Bucket_4: 38010
Critical_ROB_Stalls_Percent_2_Bucket_5: 250469
Non-critical_ROB_Stalls_Percent_2_Bucket_5: 22607
Critical_ROB_Stalls_Percent_2_Bucket_6: 604372
Non-critical_ROB_Stalls_Percent_2_Bucket_6: 34888
Critical_ROB_Stalls_Percent_3_Bucket_0: 458599
Non-critical_ROB_Stalls_Percent_3_Bucket_0: 699476
Critical_ROB_Stalls_Percent_3_Bucket_1: 434723
Non-critical_ROB_Stalls_Percent_3_Bucket_1: 373537
Critical_ROB_Stalls_Percent_3_Bucket_2: 299059
Non-critical_ROB_Stalls_Percent_3_Bucket_2: 146954
Critical_ROB_Stalls_Percent_3_Bucket_3: 251385
Non-critical_ROB_Stalls_Percent_3_Bucket_3: 62888
Critical_ROB_Stalls_Percent_3_Bucket_4: 246742
Non-critical_ROB_Stalls_Percent_3_Bucket_4: 35084
Critical_ROB_Stalls_Percent_3_Bucket_5: 252214
Non-critical_ROB_Stalls_Percent_3_Bucket_5: 20862
Critical_ROB_Stalls_Percent_3_Bucket_6: 607167
Non-critical_ROB_Stalls_Percent_3_Bucket_6: 32093
Critical_ROB_Stalls_Percent_4_Bucket_0: 537267
Non-critical_ROB_Stalls_Percent_4_Bucket_0: 620808
Critical_ROB_Stalls_Percent_4_Bucket_1: 500289
Non-critical_ROB_Stalls_Percent_4_Bucket_1: 307971
Critical_ROB_Stalls_Percent_4_Bucket_2: 326930
Non-critical_ROB_Stalls_Percent_4_Bucket_2: 119083
Critical_ROB_Stalls_Percent_4_Bucket_3: 260809
Non-critical_ROB_Stalls_Percent_4_Bucket_3: 53464
Critical_ROB_Stalls_Percent_4_Bucket_4: 252273
Non-critical_ROB_Stalls_Percent_4_Bucket_4: 29553
Critical_ROB_Stalls_Percent_4_Bucket_5: 254506
Non-critical_ROB_Stalls_Percent_4_Bucket_5: 18570
Critical_ROB_Stalls_Percent_4_Bucket_6: 613579
Non-critical_ROB_Stalls_Percent_4_Bucket_6: 25681
Critical_ROB_Stalls_Percent_5_Bucket_0: 617737
Non-critical_ROB_Stalls_Percent_5_Bucket_0: 540338
Critical_ROB_Stalls_Percent_5_Bucket_1: 563735
Non-critical_ROB_Stalls_Percent_5_Bucket_1: 244525
Critical_ROB_Stalls_Percent_5_Bucket_2: 353616
Non-critical_ROB_Stalls_Percent_5_Bucket_2: 92397
Critical_ROB_Stalls_Percent_5_Bucket_3: 271529
Non-critical_ROB_Stalls_Percent_5_Bucket_3: 42744
Critical_ROB_Stalls_Percent_5_Bucket_4: 257588
Non-critical_ROB_Stalls_Percent_5_Bucket_4: 24238
Critical_ROB_Stalls_Percent_5_Bucket_5: 258544
Non-critical_ROB_Stalls_Percent_5_Bucket_5: 14532
Critical_ROB_Stalls_Percent_5_Bucket_6: 618543
Non-critical_ROB_Stalls_Percent_5_Bucket_6: 20717
Critical_ROB_Stalls_Percent_6_Bucket_0: 704640
Non-critical_ROB_Stalls_Percent_6_Bucket_0: 453435
Critical_ROB_Stalls_Percent_6_Bucket_1: 631955
Non-critical_ROB_Stalls_Percent_6_Bucket_1: 176305
Critical_ROB_Stalls_Percent_6_Bucket_2: 372048
Non-critical_ROB_Stalls_Percent_6_Bucket_2: 73965
Critical_ROB_Stalls_Percent_6_Bucket_3: 279087
Non-critical_ROB_Stalls_Percent_6_Bucket_3: 35186
Critical_ROB_Stalls_Percent_6_Bucket_4: 263034
Non-critical_ROB_Stalls_Percent_6_Bucket_4: 18792
Critical_ROB_Stalls_Percent_6_Bucket_5: 262501
Non-critical_ROB_Stalls_Percent_6_Bucket_5: 10575
Critical_ROB_Stalls_Percent_6_Bucket_6: 623487
Non-critical_ROB_Stalls_Percent_6_Bucket_6: 15773
Critical_ROB_Stalls_Percent_7_Bucket_0: 811646
Non-critical_ROB_Stalls_Percent_7_Bucket_0: 346429
Critical_ROB_Stalls_Percent_7_Bucket_1: 684491
Non-critical_ROB_Stalls_Percent_7_Bucket_1: 123769
Critical_ROB_Stalls_Percent_7_Bucket_2: 390275
Non-critical_ROB_Stalls_Percent_7_Bucket_2: 55738
Critical_ROB_Stalls_Percent_7_Bucket_3: 287085
Non-critical_ROB_Stalls_Percent_7_Bucket_3: 27188
Critical_ROB_Stalls_Percent_7_Bucket_4: 267397
Non-critical_ROB_Stalls_Percent_7_Bucket_4: 14429
Critical_ROB_Stalls_Percent_7_Bucket_5: 265786
Non-critical_ROB_Stalls_Percent_7_Bucket_5: 7290
Critical_ROB_Stalls_Percent_7_Bucket_6: 626023
Non-critical_ROB_Stalls_Percent_7_Bucket_6: 13237
Critical_ROB_Stalls_Percent_8_Bucket_0: 917455
Non-critical_ROB_Stalls_Percent_8_Bucket_0: 240620
Critical_ROB_Stalls_Percent_8_Bucket_1: 733194
Non-critical_ROB_Stalls_Percent_8_Bucket_1: 75066
Critical_ROB_Stalls_Percent_8_Bucket_2: 410583
Non-critical_ROB_Stalls_Percent_8_Bucket_2: 35430
Critical_ROB_Stalls_Percent_8_Bucket_3: 296302
Non-critical_ROB_Stalls_Percent_8_Bucket_3: 17971
Critical_ROB_Stalls_Percent_8_Bucket_4: 273241
Non-critical_ROB_Stalls_Percent_8_Bucket_4: 8585
Critical_ROB_Stalls_Percent_8_Bucket_5: 268334
Non-critical_ROB_Stalls_Percent_8_Bucket_5: 4742
Critical_ROB_Stalls_Percent_8_Bucket_6: 629612
Non-critical_ROB_Stalls_Percent_8_Bucket_6: 9648
Average ROB occupancy Load Stall Begin: 134.145
Average ROB occupancy Load Stall End: 142.202
Min ROB occupancy Load Stall Begin: 1
Max ROB occupancy Load Stall Begin: 352
Min ROB occupancy Load Stall End: 1
Max ROB occupancy Load Stall End: 352
Average ROB occupancy Critical Load Stall Begin: 232.963
Average ROB occupancy Critical Load Stall End: 236.4
Min ROB occupancy Critical Load Stall Begin: 2
Max ROB occupancy Critical Load Stall Begin: 352
Min ROB occupancy Critical Load Stall End: 2
Max ROB occupancy Critical Load Stall End: 352
 ROB Load Stall Begin Bucket Count 0: 1448305
 ROB Load Stall End Bucket Count 0: 1158075
 ROB Critical Load Stall Begin Bucket Count 0: 81761
 ROB Critical Load Stall End Bucket Count 0: 44186
 ROB Load Stall Begin Bucket Count 1: 633936
 ROB Load Stall End Bucket Count 1: 808260
 ROB Critical Load Stall Begin Bucket Count 1: 128409
 ROB Critical Load Stall End Bucket Count 1: 143583
 ROB Load Stall Begin Bucket Count 2: 390271
 ROB Load Stall End Bucket Count 2: 446013
 ROB Critical Load Stall Begin Bucket Count 2: 221468
 ROB Critical Load Stall End Bucket Count 2: 221902
 ROB Load Stall Begin Bucket Count 3: 288778
 ROB Load Stall End Bucket Count 3: 314273
 ROB Critical Load Stall Begin Bucket Count 3: 236202
 ROB Critical Load Stall End Bucket Count 3: 241603
 ROB Load Stall Begin Bucket Count 4: 274377
 ROB Load Stall End Bucket Count 4: 281826
 ROB Critical Load Stall Begin Bucket Count 4: 243957
 ROB Critical Load Stall End Bucket Count 4: 243328
 ROB Load Stall Begin Bucket Count 5: 266029
 ROB Load Stall End Bucket Count 5: 273076
 ROB Critical Load Stall Begin Bucket Count 5: 247735
 ROB Critical Load Stall End Bucket Count 5: 250879
 ROB Load Stall Begin Bucket Count 6: 619087
 ROB Load Stall End Bucket Count 6: 639260
 ROB Critical Load Stall Begin Bucket Count 6: 594566
 ROB Critical Load Stall End Bucket Count 6: 608617
PIST Tag Read Accesses: 2585424
PIST Read Accesses: 1292712
PIST Tag Write Accesses: 2585424
PIST Write Accesses: 1292712
Criticality detector called times: 2166685
Max global_stall_cycles_count: 3049145
Threshold Modified: 1 times, factor: -1
Sturdy critical IP cache stats: 
 Unused entries: 0
CIC Tag Read Accesses: 0
CIC Read Accesses: 0
CIC Tag Write Accesses: 0
CIC Write Accesses: 0
Wobbly critical IP cache stats: 
 Unused entries: 91
CIC Tag Read Accesses: 86822617
CIC Read Accesses: 0
CIC Tag Write Accesses: 55937
CIC Write Accesses: 0
ITLB TOTAL     ACCESS:    9857717  HIT:    9664628  MISS:     193089  HIT %:    98.0412  MISS %:    1.95876   MPKI: 3.86178
ITLB LOAD TRANSLATION ACCESS:    8837249  HIT:    8776922  MISS:      60327  HIT %:    99.3174  MISS %:   0.682645   MPKI: 1.20654
ITLB TRANSLATION FROM L1D PREFETCHER ACCESS:    1020468  HIT:     887706  MISS:     132762  HIT %:    86.9901  MISS %:    13.0099   MPKI: 2.65524
ITLBprefetch_cycle_count: 0 prefetches_per_prefetch_cycle: -nan
ITLB PREFETCH  REQUESTED:          0  ISSUED:          0  USEFUL:     107814  USELESS:      24945
ITLB USEFUL LOAD PREFETCHES:     107814 PREFETCH ISSUED TO LOWER LEVEL:          0  ACCURACY: inf
ITLB TIMELY PREFETCHES:     107814 LATE PREFETCHES: 845 DROPPED PREFETCHES: 11378
ITLB PREFETCHES SAME FILL-ORIGIN LEVEL: 0 DIFFERENT FILL-ORIGIN LEVEL: 0
ITLB AVERAGE MISS LATENCY: 330803 cycles
ITLB RQ	ACCESS:   13004601	FORWARD:          0	MERGED:    3106331	TO_CACHE:    9898270

DTLB TOTAL     ACCESS:   10469373  HIT:    8724801  MISS:    1744572  HIT %:    83.3364  MISS %:    16.6636   MPKI: 34.8914
DTLB LOAD TRANSLATION ACCESS:   10469373  HIT:    8724801  MISS:    1744572  HIT %:    83.3364  MISS %:    16.6636   MPKI: 34.8914
DTLBprefetch_cycle_count: 0 prefetches_per_prefetch_cycle: -nan
DTLB PREFETCH  REQUESTED:          0  ISSUED:          0  USEFUL:          0  USELESS:          0
DTLB USEFUL LOAD PREFETCHES:          0 PREFETCH ISSUED TO LOWER LEVEL:          0  ACCURACY: -nan
DTLB TIMELY PREFETCHES:          0 LATE PREFETCHES: 0 DROPPED PREFETCHES: 0
DTLB PREFETCHES SAME FILL-ORIGIN LEVEL: 0 DIFFERENT FILL-ORIGIN LEVEL: 0
DTLB AVERAGE MISS LATENCY: 10.9315 cycles
DTLB RQ	ACCESS:   13779285	FORWARD:          0	MERGED:    3273881	TO_CACHE:   10505404

STLB TOTAL     ACCESS:    2982131  HIT:    2884686  MISS:      97445  HIT %:    96.7324  MISS %:    3.26763   MPKI: 1.9489
STLB LOAD TRANSLATION ACCESS:    1804054  HIT:    1728319  MISS:      75735  HIT %:     95.802  MISS %:    4.19805   MPKI: 1.5147
STLB TRANSLATION FROM L1D PREFETCHER ACCESS:    1178077  HIT:    1156367  MISS:      21710  HIT %:    98.1572  MISS %:    1.84283   MPKI: 0.4342
STLBprefetch_cycle_count: 0 prefetches_per_prefetch_cycle: -nan
STLB PREFETCH  REQUESTED:          0  ISSUED:          0  USEFUL:      12350  USELESS:       9370
STLB USEFUL LOAD PREFETCHES:      12350 PREFETCH ISSUED TO LOWER LEVEL:          0  ACCURACY: inf
STLB TIMELY PREFETCHES:      12350 LATE PREFETCHES: 0 DROPPED PREFETCHES: 11378
STLB PREFETCHES SAME FILL-ORIGIN LEVEL: 0 DIFFERENT FILL-ORIGIN LEVEL: 0
STLB AVERAGE MISS LATENCY: 48.5968 cycles
STLB RQ	ACCESS:    3270341	FORWARD:          0	MERGED:     276832	TO_CACHE:    2993509

STLB Hit, L1D data hit: 0
STLB Hit, L2C data hit: 0
STLB Hit, LLC data hit: 0
STLB Hit, LLC data miss: 0
STLB STLB hints to L2: 0
L1D TOTAL     ACCESS:   14961768  HIT:   12227229  MISS:    2734539  HIT %:    81.7232  MISS %:    18.2768   MPKI: 54.6908
L1D LOAD      ACCESS:    9010746  HIT:    6972462  MISS:    2038284  HIT %:    77.3794  MISS %:    22.6206   MPKI: 40.7657
L1D RFO       ACCESS:    4632503  HIT:    4539441  MISS:      93062  HIT %:    97.9911  MISS %:    2.00889   MPKI: 1.86124
L1D PREFETCH  ACCESS:    1318519  HIT:     715326  MISS:     603193  HIT %:    54.2522  MISS %:    45.7478   MPKI: 12.0639
L1Dprefetch_cycle_count: 1141718 prefetches_per_prefetch_cycle: 2.31459
L1D PREFETCH  REQUESTED:    2642618  ISSUED:    2642607  USEFUL:     160575  USELESS:     442618
L1D USEFUL LOAD PREFETCHES:     160575 PREFETCH ISSUED TO LOWER LEVEL:     603830  ACCURACY: 26.5927
L1D TIMELY PREFETCHES:     160575 LATE PREFETCHES: 637 DROPPED PREFETCHES: 0
L1D PREFETCHES SAME FILL-ORIGIN LEVEL: 603830 DIFFERENT FILL-ORIGIN LEVEL: 0
L1D AVERAGE MISS LATENCY: 8816.58 cycles
L1D RQ	ACCESS:   12386027	FORWARD:          0	MERGED:    3266062	TO_CACHE:    9044170
L1D WQ	ACCESS:    4834418	FORWARD:      75798	MERGED:      99303	TO_CACHE:    4735115
L1D PQ	ACCESS:    1321305	FORWARD:          0	MERGED:          0	TO_CACHE:    1321302

L1D UNIQUE REGIONS ACCESSED: 0
L1D REGIONS CONFLICTS: 0
L1D Cross Page Prefetch Requests: 0
L1D Same Page Prefetch Requests: 1325928
L1D ROI Sum of L1D PQ occupancy: 17077482
L1D PREFETCHES PUSHED FROM L2C: 0
L1I TOTAL     ACCESS:   12851955  HIT:   11235417  MISS:    1616538  HIT %:    87.4219  MISS %:    12.5781   MPKI: 32.3308
L1I LOAD      ACCESS:   10505723  HIT:   10287892  MISS:     217831  HIT %:    97.9265  MISS %:    2.07345   MPKI: 4.35662
L1I PREFETCH  ACCESS:    2346232  HIT:     947525  MISS:    1398707  HIT %:     40.385  MISS %:     59.615   MPKI: 27.9741
L1Iprefetch_cycle_count: 0 prefetches_per_prefetch_cycle: inf
L1I PREFETCH  REQUESTED:    2570130  ISSUED:    2563254  USEFUL:     922084  USELESS:     476616
L1I USEFUL LOAD PREFETCHES:     922084 PREFETCH ISSUED TO LOWER LEVEL:    1427367  ACCURACY: 64.6003
L1I TIMELY PREFETCHES:     922084 LATE PREFETCHES: 28660 DROPPED PREFETCHES: 37001
L1I PREFETCHES SAME FILL-ORIGIN LEVEL: 1427367 DIFFERENT FILL-ORIGIN LEVEL: 0
L1I AVERAGE MISS LATENCY: 1.25336e+06 cycles
L1I RQ	ACCESS:   15172823	FORWARD:          0	MERGED:    4641663	TO_CACHE:   10531160
L1I PQ	ACCESS:    2563254	FORWARD:          0	MERGED:      89813	TO_CACHE:    2473441

BTB TOTAL     ACCESS:    6346923  HIT:    5659258  MISS:     687665  HIT %:    89.1654  MISS %:    10.8346   MPKI: 13.7533
BTB BRANCH_DIRECT_JUMP	ACCESS:     445350  HIT:     394979  MISS:      50371
BTB BRANCH_INDIRECT	ACCESS:     131150  HIT:     103590  MISS:      27560
BTB BRANCH_CONDITIONAL	ACCESS:    3934011  HIT:    3727039  MISS:     206972
BTB BRANCH_DIRECT_CALL	ACCESS:     732485  HIT:     637543  MISS:      94942
BTB BRANCH_INDIRECT_CALL	ACCESS:     172369  HIT:     162115  MISS:      10254
BTB BRANCH_RETURN	ACCESS:     931558  HIT:     633992  MISS:     297566
BTB BRANCH_OTHER ACCESS:          0  HIT:          0  MISS:          0

L2C TOTAL     ACCESS:    5101004  HIT:    4023159  MISS:    1077845  HIT %:    78.8699  MISS %:    21.1301   MPKI: 21.5569
L2C LOAD      ACCESS:    2226803  HIT:    1882697  MISS:     344106  HIT %:    84.5471  MISS %:    15.4529   MPKI: 6.88212
L2C DATA LOAD MPKI: 5.4
L2C INSTRUCTION LOAD MPKI: 1.48212
L2C RFO       ACCESS:      93062  HIT:      51343  MISS:      41719  HIT %:    55.1707  MISS %:    44.8293   MPKI: 0.83438
L2C PREFETCH  ACCESS:    2412881  HIT:    1797431  MISS:     615450  HIT %:    74.4931  MISS %:    25.5069   MPKI: 12.309
L2C DATA PREFETCH MPKI: 2.4381
L2C INSTRUCTION PREFETCH MPKI: 9.8709
L2C WRITEBACK ACCESS:     223988  HIT:     201493  MISS:      22495  HIT %:    89.9571  MISS %:    10.0429   MPKI: 0.4499
L2C LOAD TRANSLATION ACCESS:      99605  HIT:      54170  MISS:      45435  HIT %:    54.3848  MISS %:    45.6152   MPKI: 0.9087
L2C TRANSLATION FROM L1D PREFETCHER ACCESS:      44665  HIT:      36025  MISS:       8640  HIT %:     80.656  MISS %:     19.344   MPKI: 0.1728
L2Cprefetch_cycle_count: 1143079 prefetches_per_prefetch_cycle: 1.00007
L2C PREFETCH  REQUESTED:    1143170  ISSUED:    1143163  USEFUL:      25611  USELESS:     598070
L2C USEFUL LOAD PREFETCHES:      25611 PREFETCH ISSUED TO LOWER LEVEL:     616192  ACCURACY: 4.15633
L2C TIMELY PREFETCHES:      25611 LATE PREFETCHES: 742 DROPPED PREFETCHES: 0
L2C PREFETCHES SAME FILL-ORIGIN LEVEL: 138528 DIFFERENT FILL-ORIGIN LEVEL: 0
L2C AVERAGE MISS LATENCY: 40.2831 cycles
L2C RQ	ACCESS:    2464150	FORWARD:          0	MERGED:          0	TO_CACHE:    2464135
L2C WQ	ACCESS:     223988	FORWARD:         15	MERGED:          0	TO_CACHE:     223988
L2C PQ	ACCESS:    3174360	FORWARD:          0	MERGED:     735706	TO_CACHE:    2438654

L2C Instructions Evicting Data 240665
L2C Translations Evicting Data 22013
L2C Data Evicting Data 184296
L2C Instructions Evicting Instructions 298143
L2C Translations Evicting Instructions 29616
L2C Data Evicting Instructions 227781
L2C Instructions Evicting Translations 28843
L2C Translations Evicting Translations 2446
L2C Data Evicting Translations 21547
L2C Dense regions hint from L2: 0
PSCL5 TOTAL     ACCESS:     108823  HIT:     108823  MISS:          0  HIT %:        100  MISS %:          0   MPKI: 0
PSCL5 LOAD TRANSLATION ACCESS:      75735  HIT:      75735  MISS:          0  HIT %:        100  MISS %:          0   MPKI: 0
PSCL5 TRANSLATION FROM L1D PREFETCHER ACCESS:      33088  HIT:      33088  MISS:          0  HIT %:        100  MISS %:          0   MPKI: 0
PSCL5prefetch_cycle_count: 0 prefetches_per_prefetch_cycle: -nan
PSCL5 PREFETCH  REQUESTED:          0  ISSUED:          0  USEFUL:          0  USELESS:          0
PSCL5 USEFUL LOAD PREFETCHES:          0 PREFETCH ISSUED TO LOWER LEVEL:          0  ACCURACY: -nan
PSCL5 TIMELY PREFETCHES:          0 LATE PREFETCHES: 0 DROPPED PREFETCHES: 0
PSCL5 PREFETCHES SAME FILL-ORIGIN LEVEL: 0 DIFFERENT FILL-ORIGIN LEVEL: 0

PSCL4 TOTAL     ACCESS:     100456  HIT:     100173  MISS:        283  HIT %:    99.7183  MISS %:   0.281715   MPKI: 0.00566
PSCL4 LOAD TRANSLATION ACCESS:      71193  HIT:      70910  MISS:        283  HIT %:    99.6025  MISS %:   0.397511   MPKI: 0.00566
PSCL4 TRANSLATION FROM L1D PREFETCHER ACCESS:      29263  HIT:      29263  MISS:          0  HIT %:        100  MISS %:          0   MPKI: 0
PSCL4prefetch_cycle_count: 0 prefetches_per_prefetch_cycle: -nan
PSCL4 PREFETCH  REQUESTED:          0  ISSUED:          0  USEFUL:          0  USELESS:          0
PSCL4 USEFUL LOAD PREFETCHES:          0 PREFETCH ISSUED TO LOWER LEVEL:          0  ACCURACY: -nan
PSCL4 TIMELY PREFETCHES:          0 LATE PREFETCHES: 0 DROPPED PREFETCHES: 0
PSCL4 PREFETCHES SAME FILL-ORIGIN LEVEL: 0 DIFFERENT FILL-ORIGIN LEVEL: 0

PSCL3 TOTAL     ACCESS:     106690  HIT:     105919  MISS:        771  HIT %:    99.2773  MISS %:   0.722654   MPKI: 0.01542
PSCL3 LOAD TRANSLATION ACCESS:      75348  HIT:      74577  MISS:        771  HIT %:    98.9767  MISS %:    1.02325   MPKI: 0.01542
PSCL3 TRANSLATION FROM L1D PREFETCHER ACCESS:      31342  HIT:      31342  MISS:          0  HIT %:        100  MISS %:          0   MPKI: 0
PSCL3prefetch_cycle_count: 0 prefetches_per_prefetch_cycle: -nan
PSCL3 PREFETCH  REQUESTED:          0  ISSUED:          0  USEFUL:          0  USELESS:          0
PSCL3 USEFUL LOAD PREFETCHES:          0 PREFETCH ISSUED TO LOWER LEVEL:          0  ACCURACY: -nan
PSCL3 TIMELY PREFETCHES:          0 LATE PREFETCHES: 0 DROPPED PREFETCHES: 0
PSCL3 PREFETCHES SAME FILL-ORIGIN LEVEL: 0 DIFFERENT FILL-ORIGIN LEVEL: 0

PSCL2 TOTAL     ACCESS:     100993  HIT:      75219  MISS:      25774  HIT %:    74.4794  MISS %:    25.5206   MPKI: 0.51548
PSCL2 LOAD TRANSLATION ACCESS:      78446  HIT:      52672  MISS:      25774  HIT %:    67.1443  MISS %:    32.8557   MPKI: 0.51548
PSCL2 TRANSLATION FROM L1D PREFETCHER ACCESS:      22547  HIT:      22547  MISS:          0  HIT %:        100  MISS %:          0   MPKI: 0
PSCL2prefetch_cycle_count: 0 prefetches_per_prefetch_cycle: -nan
PSCL2 PREFETCH  REQUESTED:          0  ISSUED:          0  USEFUL:          0  USELESS:          0
PSCL2 USEFUL LOAD PREFETCHES:          0 PREFETCH ISSUED TO LOWER LEVEL:          0  ACCURACY: -nan
PSCL2 TIMELY PREFETCHES:          0 LATE PREFETCHES: 0 DROPPED PREFETCHES: 0
PSCL2 PREFETCHES SAME FILL-ORIGIN LEVEL: 0 DIFFERENT FILL-ORIGIN LEVEL: 0

LLC TOTAL     ACCESS:    1168870  HIT:    1094585  MISS:      74285  HIT %:    93.6447  MISS %:    6.35528   MPKI: 1.4857
LLC LOAD      ACCESS:     343371  HIT:     296227  MISS:      47144  HIT %:    86.2702  MISS %:    13.7298   MPKI: 0.94288
LLC RFO       ACCESS:      41710  HIT:      30580  MISS:      11130  HIT %:    73.3158  MISS %:    26.6842   MPKI: 0.2226
LLC PREFETCH  ACCESS:     616192  HIT:     602638  MISS:      13554  HIT %:    97.8004  MISS %:    2.19964   MPKI: 0.27108
LLC WRITEBACK ACCESS:     113522  HIT:     112544  MISS:        978  HIT %:    99.1385  MISS %:   0.861507   MPKI: 0.01956
LLC LOAD TRANSLATION ACCESS:      45435  HIT:      44014  MISS:       1421  HIT %:    96.8725  MISS %:    3.12754   MPKI: 0.02842
LLC TRANSLATION FROM L1D PREFETCHER ACCESS:       8640  HIT:       8582  MISS:         58  HIT %:    99.3287  MISS %:   0.671296   MPKI: 0.00116
LLCprefetch_cycle_count: 0 prefetches_per_prefetch_cycle: -nan
LLC PREFETCH  REQUESTED:          0  ISSUED:          0  USEFUL:        979  USELESS:      14408
LLC USEFUL LOAD PREFETCHES:        979 PREFETCH ISSUED TO LOWER LEVEL:      13554  ACCURACY: 7.22296
LLC TIMELY PREFETCHES:        979 LATE PREFETCHES: 0 DROPPED PREFETCHES: 0
LLC PREFETCHES SAME FILL-ORIGIN LEVEL: 0 DIFFERENT FILL-ORIGIN LEVEL: 0
LLC AVERAGE MISS LATENCY: 157.765 cycles
LLC RQ	ACCESS:     439158	FORWARD:          0	MERGED:          0	TO_CACHE:     439156
LLC WQ	ACCESS:     113522	FORWARD:          2	MERGED:          0	TO_CACHE:     113522
LLC PQ	ACCESS:     616192	FORWARD:          0	MERGED:          0	TO_CACHE:     616192

LLC Dense regions hint to LLC: 0

RAW hits: 989656
Loads Generated: 13375685
Loads sent to L1D: 12386027
Stores Generated: 4834417
Stores sent to L1D: 4834418
Major fault: 0 Minor fault: 6724
Allocated PAGES: 6724
I-Shadow cache 408 bytes
Touched + WorthPF tables 6144 bytes 
MMA filter 174 bytes 
FNL filter 272 bytes 
TOTAL PREFETCHER STORAGE SIZE: 25174 bytes
CPU 0 L1I next line prefetcher final stats

total_pref_operate_instances_l1: 3061037
dynamic_config_counter_instances_1: 2838425
dynamic_config_counter_instances_2: 3377
dynamic_config_counter_instances_3: 4041
dynamic_config_counter_instances_4: 782
dynamic_config_counter_instances_5: 214412
stream: 
stream:times selected: 2109908
stream:pref_filled: 12100
stream:pref_useful: 2927
stream:pref_late: 285
stream:misses: 4287
stream:misses_by_poll: 0

CS: 
CS:times selected: 567650
CS:pref_filled: 3322
CS:pref_useful: 1204
CS:pref_late: 154
CS:misses: 857
CS:misses_by_poll: 0

CPLX: 
CPLX:times selected: 1918950
CPLX:pref_filled: 579189
CPLX:pref_useful: 156637
CPLX:pref_late: 45
CPLX:misses: 1391257
CPLX:misses_by_poll: 3

NL_L1: 
NL:times selected: 118886
NL:pref_filled: 11034
NL:pref_useful: 104
NL:pref_late: 30
NL:misses: 150387
NL:misses_by_poll: 0

total selections: 4715394
total_filled: 603193
total_useful: 160575
total_late: 707
total_polluted: 3
total_misses_after_warmup: 1585009
conflicts: 128290
Degree Incremented Times: 0
Degree Decremented Times: 23649

L1 IP Table Write Accesses: 2873552
L1 IP Table Read Accesses: 2745262
L1 RST Write Accesses: 2106966
L1 RST Read Accesses: 4213932
L1 CSPT Write Accesses: 2106966
L1 CSPT Read Accesses: 4023564
L1 RR Filter Tag Write Accesses: 1321316
L1 RR Filter Tag Read Accesses: 44821775
L1 IP Table Tag Write Accesses: 3061037
L1 IP Table Tag Read Accesses: 3061037
L1 RST Tag Write Accesses: 0
L1 RST Tag Read Accesses: 17053231
L1 RR Filter Write Accesses: 0
L1 RR Filter Read Accesses: 1414401
test: 1191271
total_pref_operate_instances_l2: 3320515
dynamic_config_counter_instances_l2_1: 3306190
dynamic_config_counter_instances_l2_2: 3480
dynamic_config_counter_instances_l2_3: 10845
dynamic_config_counter_instances_l2_4: 0
dynamic_config_counter_instances_l2_5: 0
L2 IP Table Read Accesses: 5478725
L2 IP Table Write Accesses: 5074479
L2 IP Table Tag Read Accesses: 3320515
L2 IP Table Tag Write Accesses: 3320515

DRAM Statistics
 CHANNEL 0
 RQ ROW_BUFFER_HIT:      14054  ROW_BUFFER_MISS:      59252
 DBUS_CONGESTED:         41
 WQ ROW_BUFFER_HIT:       8027  ROW_BUFFER_MISS:      35303  FULL:          0

 AVG_CONGESTED_CYCLE: 4
 All warmup complete: 2
Channel 0 Bank busy for read cycles: 0
Channel 0 Bank busy for write cycles: 0
Channel 0
Rank 0
0banks busy for read cycles: 80180240
0banks busy for write cycles: 20252
1banks busy for read cycles: 5272028
1banks busy for write cycles: 2775098
2banks busy for read cycles: 1181471
2banks busy for write cycles: 834403
3banks busy for read cycles: 281281
3banks busy for write cycles: 291234
4banks busy for read cycles: 93761
4banks busy for write cycles: 138463
5banks busy for read cycles: 42471
5banks busy for write cycles: 93576
6banks busy for read cycles: 31338
6banks busy for write cycles: 72639
7banks busy for read cycles: 23342
7banks busy for write cycles: 71402
8banks busy for read cycles: 23152
8banks busy for write cycles: 113707

CPU 0 Branch Prediction Accuracy: 99.4713% MPKI: 1.11484 Average ROB Occupancy at Mispredict: 58.42
Branch types
NOT_BRANCH: 39456589 78.9132%
BRANCH_DIRECT_JUMP: 445350 0.8907%
BRANCH_INDIRECT: 131150 0.2623%
BRANCH_CONDITIONAL: 8130188 16.2604%
BRANCH_DIRECT_CALL: 732485 1.46497%
BRANCH_INDIRECT_CALL: 172369 0.344738%
BRANCH_RETURN: 931558 1.86312%
BRANCH_OTHER: 0 0%

DRAM PAGES: 1048576
Allocated PAGES: 6724
