
*** ChampSim Multicore Out-of-Order Simulator ***

Warmup Instructions: 50000000
Simulation Instructions: 50000000
Number of CPUs: 1
LLC sets: 2048
LLC ways: 16
Off-chip DRAM Size: 4096 MB Channels: 1 Width: 64-bit Data Rate: 6400 MT/s
CPU 0 runs ../IPC-traces//server_017.champsimtrace.xz
.xz
NUM_OF_IPS_IN_CRITICAL_IP_TRAINING: 64
NUM_OF_CRITICAL_IP_TRAINING_TABLE_WAYS: 2
NUM_OF_CRITICAL_IP_TRAINING_TABLE_SETS: 32
WOBBLY_CRITICAL_IP_CACHE_SETS: 32
WOBBLY_CRITICAL_IP_CACHE_WAYS: 4
BTB has LRU replacement policy
ITLB has LRU replacement policy
DTLB has LRU replacement policy
STLB has LRU replacement policy
CPU 0 L1I next line prefetcher
L1I has LRU replacement policy
IP Table Entries: 256
L1D has LRU replacement policy
Initialize SRRIP state for L2C
Initialize DRRIP state for LLC
Heartbeat CPU 0 instructions: 10000000 cycles: 3146669 heartbeat IPC: 3.17796 cumulative IPC: 3.17796 (Simulation time: 0 hr 2 min 42 sec) 
Heartbeat CPU 0 instructions: 20000000 cycles: 6289908 heartbeat IPC: 3.18143 cumulative IPC: 3.1797 (Simulation time: 0 hr 5 min 28 sec) 
Heartbeat CPU 0 instructions: 30000002 cycles: 9442778 heartbeat IPC: 3.17171 cumulative IPC: 3.17703 (Simulation time: 0 hr 8 min 15 sec) 
Heartbeat CPU 0 instructions: 40000000 cycles: 12587565 heartbeat IPC: 3.17986 cumulative IPC: 3.17774 (Simulation time: 0 hr 10 min 58 sec) 
Heartbeat CPU 0 instructions: 50000000 cycles: 15747739 heartbeat IPC: 3.16438 cumulative IPC: 3.17506 (Simulation time: 0 hr 13 min 34 sec) 

Warmup complete CPU 0 instructions: 50000004 cycles: 15747740 (Simulation time: 0 hr 13 min 34 sec) 

% increase in all ip prefetch 407.274
% increase in all ip prefetch -14.2586
Heartbeat CPU 0 instructions: 60000000 cycles: 34788011 heartbeat IPC: 0.525203 cumulative IPC: 0.525202 (Simulation time: 0 hr 16 min 54 sec) 
Heartbeat CPU 0 instructions: 70000000 cycles: 53811160 heartbeat IPC: 0.525675 cumulative IPC: 0.525439 (Simulation time: 0 hr 20 min 15 sec) 
Heartbeat CPU 0 instructions: 80000000 cycles: 72736213 heartbeat IPC: 0.5284 cumulative IPC: 0.526422 (Simulation time: 0 hr 23 min 31 sec) 
Heartbeat CPU 0 instructions: 90000003 cycles: 98794019 heartbeat IPC: 0.383762 cumulative IPC: 0.481659 (Simulation time: 0 hr 29 min 3 sec) 
Heartbeat CPU 0 instructions: 100000003 cycles: 123445224 heartbeat IPC: 0.40566 cumulative IPC: 0.464263 (Simulation time: 0 hr 33 min 32 sec) 
Finished CPU 0 instructions: 50000003 cycles: 107697501 cumulative IPC: 0.464263 (Simulation time: 0 hr 33 min 32 sec) 

ChampSim completed all CPUs

Region of Interest Statistics

CPU 0 cumulative IPC: 0.464263 instructions: 50000003 cycles: 107697501

CPU 0 Average Load ROB stall cycles: 2.98922e+07
CPU 0 Fraction of times ROB stalled by Loads: 45.6428
CPU 0 Percentage of Load stall cycles in Total stall cycles: 2.31389e+08
Issued all: 47220306
Issued LT all: 41802596
rob_not_full_when_issued_lt_all: 17166343
Issued LT one: 36195448
rob_not_full_when_issued_lt_one: 13235602
critical_ip_candidate_identification_operations: 6449566
critical_ip_candidate_identification_operation_per_cycle: 0.0598859
 Total stall cycles: 91273209
 Total load stall cycles: 211196433015044
Unique Load IPs: 6875
CPU 0 NUM of IPS identified critical: 18
CPU 0 Num of Load IPs stalling ROB: 5243
Threshold modification factor: -1
Max PIST entries: 64
Min PIST entries: 0
Avg PIST entries: 30.23
Trouble in retire width: 0.821803
MaC = Marked as critical.
lt_50_percent_before_Mac: 18
gt_90_percent_before_Mac: 0
gt_75_percent_before_Mac: 0
gt_50_percent_before_Mac: 0
stall_proportion_bin_same_before_after: 0
stall_proportion_bin_lower_before_after: 0
stall_proportion_bin_upper_before_after: 0
average_stall_proportion_before: 0.0436772
average_stall_proportion_after: 0.0440311
Critical IP stalls, total frequency: 1683665
Non-critical IP stalls, total frequency: 1541118
Total Freq all stalling IPs: 3224783
Critical_IP_Detector_Accuracy_70: 1
Critical_IP_Detector_Accuracy_80: 1
Critical_IP_Detector_Accuracy_90: 1
Critical_IP_Detector_Coverage_70: 0.138462
Critical_IP_Detector_Coverage_80: 0.0633803
Critical_IP_Detector_Coverage_90: 0.0383795
stat_90_percent_critical_ip_stalls_freq: 2903360
stat_90_percent_non_critical_ip_stalls_freq: 321423
AVERAGE_ROB_Occupancy_90_Percent_Critical_IP_Stalls: 199.04
AVERAGE_ROB_Occupancy_90_Percent_Non_Critical_IP_Stalls: 107.262
Critical_IP_ROB_Stalls_Bucket_0: 40908
Non-critical_IP_ROB_Stalls_Bucket_0: 427385
Critical_IP_ROB_Stalls_Bucket_1: 94587
Non-critical_IP_ROB_Stalls_Bucket_1: 497731
Critical_IP_ROB_Stalls_Bucket_2: 179683
Non-critical_IP_ROB_Stalls_Bucket_2: 299733
Critical_IP_ROB_Stalls_Bucket_3: 213216
Non-critical_IP_ROB_Stalls_Bucket_3: 113063
Critical_IP_ROB_Stalls_Bucket_4: 128078
Non-critical_IP_ROB_Stalls_Bucket_4: 56753
Critical_IP_ROB_Stalls_Bucket_5: 123960
Non-critical_IP_ROB_Stalls_Bucket_5: 43219
Critical_IP_ROB_Stalls_Bucket_6: 903233
Non-critical_IP_ROB_Stalls_Bucket_6: 103234
0 => IPs accounting for >50 percent of stalls, 1 => 55, 2 => 60, 3 => 65 and so on till 90.
percent50: 50.2017 num IPs:  8
percent55: 55.0415 num IPs: 15
percent60: 60.1645 num IPs: 36
percent65: 65.0956 num IPs: 72
percent70: 70.0015 num IPs: 130
percent75: 75.0565 num IPs: 207
percent80: 80.0342 num IPs: 284
percent85: 85.006 num IPs: 366
percent90: 90.0328 num IPs: 469
Critical_ROB_Stalls_Percent_0_Bucket_0: 35540
Non-critical_ROB_Stalls_Percent_0_Bucket_0: 432753
Critical_ROB_Stalls_Percent_0_Bucket_1: 90644
Non-critical_ROB_Stalls_Percent_0_Bucket_1: 501674
Critical_ROB_Stalls_Percent_0_Bucket_2: 181323
Non-critical_ROB_Stalls_Percent_0_Bucket_2: 298093
Critical_ROB_Stalls_Percent_0_Bucket_3: 182684
Non-critical_ROB_Stalls_Percent_0_Bucket_3: 143595
Critical_ROB_Stalls_Percent_0_Bucket_4: 124244
Non-critical_ROB_Stalls_Percent_0_Bucket_4: 60587
Critical_ROB_Stalls_Percent_0_Bucket_5: 115621
Non-critical_ROB_Stalls_Percent_0_Bucket_5: 51558
Critical_ROB_Stalls_Percent_0_Bucket_6: 888839
Non-critical_ROB_Stalls_Percent_0_Bucket_6: 117628
Critical_ROB_Stalls_Percent_1_Bucket_0: 60138
Non-critical_ROB_Stalls_Percent_1_Bucket_0: 408155
Critical_ROB_Stalls_Percent_1_Bucket_1: 145981
Non-critical_ROB_Stalls_Percent_1_Bucket_1: 446337
Critical_ROB_Stalls_Percent_1_Bucket_2: 203459
Non-critical_ROB_Stalls_Percent_1_Bucket_2: 275957
Critical_ROB_Stalls_Percent_1_Bucket_3: 212938
Non-critical_ROB_Stalls_Percent_1_Bucket_3: 113341
Critical_ROB_Stalls_Percent_1_Bucket_4: 133064
Non-critical_ROB_Stalls_Percent_1_Bucket_4: 51767
Critical_ROB_Stalls_Percent_1_Bucket_5: 125969
Non-critical_ROB_Stalls_Percent_1_Bucket_5: 41210
Critical_ROB_Stalls_Percent_1_Bucket_6: 893419
Non-critical_ROB_Stalls_Percent_1_Bucket_6: 113048
Critical_ROB_Stalls_Percent_2_Bucket_0: 132428
Non-critical_ROB_Stalls_Percent_2_Bucket_0: 335865
Critical_ROB_Stalls_Percent_2_Bucket_1: 192870
Non-critical_ROB_Stalls_Percent_2_Bucket_1: 399448
Critical_ROB_Stalls_Percent_2_Bucket_2: 222424
Non-critical_ROB_Stalls_Percent_2_Bucket_2: 256992
Critical_ROB_Stalls_Percent_2_Bucket_3: 224758
Non-critical_ROB_Stalls_Percent_2_Bucket_3: 101521
Critical_ROB_Stalls_Percent_2_Bucket_4: 138410
Non-critical_ROB_Stalls_Percent_2_Bucket_4: 46421
Critical_ROB_Stalls_Percent_2_Bucket_5: 130054
Non-critical_ROB_Stalls_Percent_2_Bucket_5: 37125
Critical_ROB_Stalls_Percent_2_Bucket_6: 899229
Non-critical_ROB_Stalls_Percent_2_Bucket_6: 107238
Critical_ROB_Stalls_Percent_3_Bucket_0: 173937
Non-critical_ROB_Stalls_Percent_3_Bucket_0: 294356
Critical_ROB_Stalls_Percent_3_Bucket_1: 231195
Non-critical_ROB_Stalls_Percent_3_Bucket_1: 361123
Critical_ROB_Stalls_Percent_3_Bucket_2: 256967
Non-critical_ROB_Stalls_Percent_3_Bucket_2: 222449
Critical_ROB_Stalls_Percent_3_Bucket_3: 231665
Non-critical_ROB_Stalls_Percent_3_Bucket_3: 94614
Critical_ROB_Stalls_Percent_3_Bucket_4: 144125
Non-critical_ROB_Stalls_Percent_3_Bucket_4: 40706
Critical_ROB_Stalls_Percent_3_Bucket_5: 138047
Non-critical_ROB_Stalls_Percent_3_Bucket_5: 29132
Critical_ROB_Stalls_Percent_3_Bucket_6: 923256
Non-critical_ROB_Stalls_Percent_3_Bucket_6: 83211
Critical_ROB_Stalls_Percent_4_Bucket_0: 214687
Non-critical_ROB_Stalls_Percent_4_Bucket_0: 253606
Critical_ROB_Stalls_Percent_4_Bucket_1: 282034
Non-critical_ROB_Stalls_Percent_4_Bucket_1: 310284
Critical_ROB_Stalls_Percent_4_Bucket_2: 286573
Non-critical_ROB_Stalls_Percent_4_Bucket_2: 192843
Critical_ROB_Stalls_Percent_4_Bucket_3: 240609
Non-critical_ROB_Stalls_Percent_4_Bucket_3: 85670
Critical_ROB_Stalls_Percent_4_Bucket_4: 147643
Non-critical_ROB_Stalls_Percent_4_Bucket_4: 37188
Critical_ROB_Stalls_Percent_4_Bucket_5: 145154
Non-critical_ROB_Stalls_Percent_4_Bucket_5: 22025
Critical_ROB_Stalls_Percent_4_Bucket_6: 940697
Non-critical_ROB_Stalls_Percent_4_Bucket_6: 65770
Critical_ROB_Stalls_Percent_5_Bucket_0: 236991
Non-critical_ROB_Stalls_Percent_5_Bucket_0: 231302
Critical_ROB_Stalls_Percent_5_Bucket_1: 342344
Non-critical_ROB_Stalls_Percent_5_Bucket_1: 249974
Critical_ROB_Stalls_Percent_5_Bucket_2: 317552
Non-critical_ROB_Stalls_Percent_5_Bucket_2: 161864
Critical_ROB_Stalls_Percent_5_Bucket_3: 263162
Non-critical_ROB_Stalls_Percent_5_Bucket_3: 63117
Critical_ROB_Stalls_Percent_5_Bucket_4: 161998
Non-critical_ROB_Stalls_Percent_5_Bucket_4: 22833
Critical_ROB_Stalls_Percent_5_Bucket_5: 150296
Non-critical_ROB_Stalls_Percent_5_Bucket_5: 16883
Critical_ROB_Stalls_Percent_5_Bucket_6: 948064
Non-critical_ROB_Stalls_Percent_5_Bucket_6: 58403
Critical_ROB_Stalls_Percent_6_Bucket_0: 273305
Non-critical_ROB_Stalls_Percent_6_Bucket_0: 194988
Critical_ROB_Stalls_Percent_6_Bucket_1: 398003
Non-critical_ROB_Stalls_Percent_6_Bucket_1: 194315
Critical_ROB_Stalls_Percent_6_Bucket_2: 361852
Non-critical_ROB_Stalls_Percent_6_Bucket_2: 117564
Critical_ROB_Stalls_Percent_6_Bucket_3: 273151
Non-critical_ROB_Stalls_Percent_6_Bucket_3: 53128
Critical_ROB_Stalls_Percent_6_Bucket_4: 166361
Non-critical_ROB_Stalls_Percent_6_Bucket_4: 18470
Critical_ROB_Stalls_Percent_6_Bucket_5: 152044
Non-critical_ROB_Stalls_Percent_6_Bucket_5: 15135
Critical_ROB_Stalls_Percent_6_Bucket_6: 956211
Non-critical_ROB_Stalls_Percent_6_Bucket_6: 50256
Critical_ROB_Stalls_Percent_7_Bucket_0: 311150
Non-critical_ROB_Stalls_Percent_7_Bucket_0: 157143
Critical_ROB_Stalls_Percent_7_Bucket_1: 442722
Non-critical_ROB_Stalls_Percent_7_Bucket_1: 149596
Critical_ROB_Stalls_Percent_7_Bucket_2: 402496
Non-critical_ROB_Stalls_Percent_7_Bucket_2: 76920
Critical_ROB_Stalls_Percent_7_Bucket_3: 292764
Non-critical_ROB_Stalls_Percent_7_Bucket_3: 33515
Critical_ROB_Stalls_Percent_7_Bucket_4: 172463
Non-critical_ROB_Stalls_Percent_7_Bucket_4: 12368
Critical_ROB_Stalls_Percent_7_Bucket_5: 155111
Non-critical_ROB_Stalls_Percent_7_Bucket_5: 12068
Critical_ROB_Stalls_Percent_7_Bucket_6: 964550
Non-critical_ROB_Stalls_Percent_7_Bucket_6: 41917
Critical_ROB_Stalls_Percent_8_Bucket_0: 362666
Non-critical_ROB_Stalls_Percent_8_Bucket_0: 105627
Critical_ROB_Stalls_Percent_8_Bucket_1: 498848
Non-critical_ROB_Stalls_Percent_8_Bucket_1: 93470
Critical_ROB_Stalls_Percent_8_Bucket_2: 429262
Non-critical_ROB_Stalls_Percent_8_Bucket_2: 50154
Critical_ROB_Stalls_Percent_8_Bucket_3: 300707
Non-critical_ROB_Stalls_Percent_8_Bucket_3: 25572
Critical_ROB_Stalls_Percent_8_Bucket_4: 175717
Non-critical_ROB_Stalls_Percent_8_Bucket_4: 9114
Critical_ROB_Stalls_Percent_8_Bucket_5: 158192
Non-critical_ROB_Stalls_Percent_8_Bucket_5: 8987
Critical_ROB_Stalls_Percent_8_Bucket_6: 977968
Non-critical_ROB_Stalls_Percent_8_Bucket_6: 28499
Average ROB occupancy Load Stall Begin: 180.786
Average ROB occupancy Load Stall End: 189.892
Min ROB occupancy Load Stall Begin: 1
Max ROB occupancy Load Stall Begin: 352
Min ROB occupancy Load Stall End: 1
Max ROB occupancy Load Stall End: 352
Average ROB occupancy Critical Load Stall Begin: 268.684
Average ROB occupancy Critical Load Stall End: 272.993
Min ROB occupancy Critical Load Stall Begin: 2
Max ROB occupancy Critical Load Stall Begin: 352
Min ROB occupancy Critical Load Stall End: 2
Max ROB occupancy Critical Load Stall End: 352
 ROB Load Stall Begin Bucket Count 0: 663094
 ROB Load Stall End Bucket Count 0: 468293
 ROB Critical Load Stall Begin Bucket Count 0: 37646
 ROB Critical Load Stall End Bucket Count 0: 25136
 ROB Load Stall Begin Bucket Count 1: 544315
 ROB Load Stall End Bucket Count 1: 592318
 ROB Critical Load Stall Begin Bucket Count 1: 88345
 ROB Critical Load Stall End Bucket Count 1: 75709
 ROB Load Stall Begin Bucket Count 2: 434240
 ROB Load Stall End Bucket Count 2: 479416
 ROB Critical Load Stall Begin Bucket Count 2: 164589
 ROB Critical Load Stall End Bucket Count 2: 155417
 ROB Load Stall Begin Bucket Count 3: 272724
 ROB Load Stall End Bucket Count 3: 326279
 ROB Critical Load Stall Begin Bucket Count 3: 179231
 ROB Critical Load Stall End Bucket Count 3: 194642
 ROB Load Stall Begin Bucket Count 4: 171927
 ROB Load Stall End Bucket Count 4: 184831
 ROB Critical Load Stall Begin Bucket Count 4: 124494
 ROB Critical Load Stall End Bucket Count 4: 125954
 ROB Load Stall Begin Bucket Count 5: 162200
 ROB Load Stall End Bucket Count 5: 167179
 ROB Critical Load Stall Begin Bucket Count 5: 115949
 ROB Critical Load Stall End Bucket Count 5: 122491
 ROB Load Stall Begin Bucket Count 6: 976283
 ROB Load Stall End Bucket Count 6: 1006467
 ROB Critical Load Stall Begin Bucket Count 6: 889528
 ROB Critical Load Stall End Bucket Count 6: 900433
PIST Tag Read Accesses: 2584876
PIST Read Accesses: 1292438
PIST Tag Write Accesses: 2584876
PIST Write Accesses: 1292438
Criticality detector called times: 1625001
Max global_stall_cycles_count: 3911583
Threshold Modified: 1 times, factor: -1
Sturdy critical IP cache stats: 
 Unused entries: 0
CIC Tag Read Accesses: 0
CIC Read Accesses: 0
CIC Tag Write Accesses: 0
CIC Write Accesses: 0
Wobbly critical IP cache stats: 
 Unused entries: 110
CIC Tag Read Accesses: 89033040
CIC Read Accesses: 0
CIC Tag Write Accesses: 72433
CIC Write Accesses: 0
ITLB TOTAL     ACCESS:   10001923  HIT:    9573695  MISS:     428228  HIT %:    95.7185  MISS %:    4.28146   MPKI: 8.56456
ITLB LOAD TRANSLATION ACCESS:    8283196  HIT:    8274442  MISS:       8754  HIT %:    99.8943  MISS %:   0.105684   MPKI: 0.17508
ITLB TRANSLATION FROM L1D PREFETCHER ACCESS:    1718727  HIT:    1299253  MISS:     419474  HIT %:    75.5939  MISS %:    24.4061   MPKI: 8.38948
ITLBprefetch_cycle_count: 0 prefetches_per_prefetch_cycle: -nan
ITLB PREFETCH  REQUESTED:          0  ISSUED:          0  USEFUL:     377670  USELESS:      41799
ITLB USEFUL LOAD PREFETCHES:     377670 PREFETCH ISSUED TO LOWER LEVEL:          0  ACCURACY: inf
ITLB TIMELY PREFETCHES:     377670 LATE PREFETCHES: 391 DROPPED PREFETCHES: 89
ITLB PREFETCHES SAME FILL-ORIGIN LEVEL: 0 DIFFERENT FILL-ORIGIN LEVEL: 0
ITLB AVERAGE MISS LATENCY: 55604.3 cycles
ITLB RQ	ACCESS:   14135472	FORWARD:          0	MERGED:    4083651	TO_CACHE:   10051821

DTLB TOTAL     ACCESS:   10621529  HIT:   10181501  MISS:     440028  HIT %:    95.8572  MISS %:    4.14279   MPKI: 8.80056
DTLB LOAD TRANSLATION ACCESS:   10621529  HIT:   10181501  MISS:     440028  HIT %:    95.8572  MISS %:    4.14279   MPKI: 8.80056
DTLBprefetch_cycle_count: 0 prefetches_per_prefetch_cycle: -nan
DTLB PREFETCH  REQUESTED:          0  ISSUED:          0  USEFUL:          0  USELESS:          0
DTLB USEFUL LOAD PREFETCHES:          0 PREFETCH ISSUED TO LOWER LEVEL:          0  ACCURACY: -nan
DTLB TIMELY PREFETCHES:          0 LATE PREFETCHES: 0 DROPPED PREFETCHES: 0
DTLB PREFETCHES SAME FILL-ORIGIN LEVEL: 0 DIFFERENT FILL-ORIGIN LEVEL: 0
DTLB AVERAGE MISS LATENCY: 24.8113 cycles
DTLB RQ	ACCESS:   15436456	FORWARD:          0	MERGED:    4736682	TO_CACHE:   10699774

STLB TOTAL     ACCESS:    1547570  HIT:    1484129  MISS:      63441  HIT %:    95.9006  MISS %:    4.09939   MPKI: 1.26882
STLB LOAD TRANSLATION ACCESS:     448391  HIT:     385977  MISS:      62414  HIT %:    86.0805  MISS %:    13.9195   MPKI: 1.24828
STLB TRANSLATION FROM L1D PREFETCHER ACCESS:    1099179  HIT:    1098152  MISS:       1027  HIT %:    99.9066  MISS %:  0.0934334   MPKI: 0.02054
STLBprefetch_cycle_count: 0 prefetches_per_prefetch_cycle: -nan
STLB PREFETCH  REQUESTED:          0  ISSUED:          0  USEFUL:        768  USELESS:        259
STLB USEFUL LOAD PREFETCHES:        768 PREFETCH ISSUED TO LOWER LEVEL:          0  ACCURACY: inf
STLB TIMELY PREFETCHES:        768 LATE PREFETCHES: 0 DROPPED PREFETCHES: 89
STLB PREFETCHES SAME FILL-ORIGIN LEVEL: 0 DIFFERENT FILL-ORIGIN LEVEL: 0
STLB AVERAGE MISS LATENCY: 114.619 cycles
STLB RQ	ACCESS:    1788032	FORWARD:          0	MERGED:     240373	TO_CACHE:    1547659

STLB Hit, L1D data hit: 0
STLB Hit, L2C data hit: 0
STLB Hit, LLC data hit: 0
STLB Hit, LLC data miss: 0
STLB STLB hints to L2: 0
L1D TOTAL     ACCESS:   14103739  HIT:   12127657  MISS:    1976082  HIT %:    85.9889  MISS %:    14.0111   MPKI: 39.5216
L1D LOAD      ACCESS:    7323650  HIT:    6724796  MISS:     598854  HIT %:     91.823  MISS %:    8.17699   MPKI: 11.9771
L1D RFO       ACCESS:    5889984  HIT:    5019374  MISS:     870610  HIT %:    85.2188  MISS %:    14.7812   MPKI: 17.4122
L1D PREFETCH  ACCESS:     890105  HIT:     383487  MISS:     506618  HIT %:    43.0833  MISS %:    56.9167   MPKI: 10.1324
L1Dprefetch_cycle_count: 695653 prefetches_per_prefetch_cycle: 2.64481
L1D PREFETCH  REQUESTED:    1859913  ISSUED:    1839867  USEFUL:     292142  USELESS:     214419
L1D USEFUL LOAD PREFETCHES:     292142 PREFETCH ISSUED TO LOWER LEVEL:     519542  ACCURACY: 56.2307
L1D TIMELY PREFETCHES:     292142 LATE PREFETCHES: 12915 DROPPED PREFETCHES: 0
L1D PREFETCHES SAME FILL-ORIGIN LEVEL: 519542 DIFFERENT FILL-ORIGIN LEVEL: 0
L1D AVERAGE MISS LATENCY: 454847 cycles
L1D RQ	ACCESS:   10779091	FORWARD:          0	MERGED:    3311608	TO_CACHE:    7358935
L1D WQ	ACCESS:    8175288	FORWARD:     109039	MERGED:      97767	TO_CACHE:    8077521
L1D PQ	ACCESS:     920180	FORWARD:          0	MERGED:          2	TO_CACHE:     919687

L1D UNIQUE REGIONS ACCESSED: 0
L1D REGIONS CONFLICTS: 0
L1D Cross Page Prefetch Requests: 0
L1D Same Page Prefetch Requests: 1684433
L1D ROI Sum of L1D PQ occupancy: 17206112
L1D PREFETCHES PUSHED FROM L2C: 0
L1I TOTAL     ACCESS:   14062128  HIT:   11234331  MISS:    2827797  HIT %:    79.8907  MISS %:    20.1093   MPKI: 56.5559
L1I LOAD      ACCESS:    9643313  HIT:    9621570  MISS:      21743  HIT %:    99.7745  MISS %:   0.225472   MPKI: 0.43486
L1I PREFETCH  ACCESS:    4418815  HIT:    1612761  MISS:    2806054  HIT %:    36.4976  MISS %:    63.5024   MPKI: 56.1211
L1Iprefetch_cycle_count: 0 prefetches_per_prefetch_cycle: inf
L1I PREFETCH  REQUESTED:    4643146  ISSUED:    4637458  USEFUL:    2348109  USELESS:     457939
L1I USEFUL LOAD PREFETCHES:    2348109 PREFETCH ISSUED TO LOWER LEVEL:    2814667  ACCURACY: 83.424
L1I TIMELY PREFETCHES:    2348109 LATE PREFETCHES: 8613 DROPPED PREFETCHES: 154
L1I PREFETCHES SAME FILL-ORIGIN LEVEL: 2814667 DIFFERENT FILL-ORIGIN LEVEL: 0
L1I AVERAGE MISS LATENCY: 237495 cycles
L1I RQ	ACCESS:   13973015	FORWARD:          0	MERGED:    4324610	TO_CACHE:    9648405
L1I PQ	ACCESS:    4637458	FORWARD:          0	MERGED:     150391	TO_CACHE:    4487067

BTB TOTAL     ACCESS:    5420737  HIT:    5179354  MISS:     241383  HIT %:     95.547  MISS %:    4.45296   MPKI: 4.82766
BTB BRANCH_DIRECT_JUMP	ACCESS:     464500  HIT:     462787  MISS:       1713
BTB BRANCH_INDIRECT	ACCESS:      45704  HIT:      45540  MISS:        164
BTB BRANCH_CONDITIONAL	ACCESS:    3156565  HIT:    3151071  MISS:       5494
BTB BRANCH_DIRECT_CALL	ACCESS:     675450  HIT:     671839  MISS:       3611
BTB BRANCH_INDIRECT_CALL	ACCESS:     201532  HIT:     175397  MISS:      26135
BTB BRANCH_RETURN	ACCESS:     876986  HIT:     672720  MISS:     204266
BTB BRANCH_OTHER ACCESS:          0  HIT:          0  MISS:          0

L2C TOTAL     ACCESS:    6006679  HIT:    4115289  MISS:    1891390  HIT %:    68.5119  MISS %:    31.4881   MPKI: 37.8278
L2C LOAD      ACCESS:     599057  HIT:     177859  MISS:     421198  HIT %:    29.6898  MISS %:    70.3102   MPKI: 8.42396
L2C DATA LOAD MPKI: 8.30486
L2C INSTRUCTION LOAD MPKI: 0.1191
L2C RFO       ACCESS:     870590  HIT:      30935  MISS:     839655  HIT %:    3.55334  MISS %:    96.4467   MPKI: 16.7931
L2C PREFETCH  ACCESS:    3334203  HIT:    2772641  MISS:     561562  HIT %:    83.1575  MISS %:    16.8425   MPKI: 11.2312
L2C DATA PREFETCH MPKI: 8.47614
L2C INSTRUCTION PREFETCH MPKI: 2.7551
L2C WRITEBACK ACCESS:    1113893  HIT:    1076186  MISS:      37707  HIT %:    96.6148  MISS %:    3.38515   MPKI: 0.75414
L2C LOAD TRANSLATION ACCESS:      87261  HIT:      57039  MISS:      30222  HIT %:     65.366  MISS %:     34.634   MPKI: 0.60444
L2C TRANSLATION FROM L1D PREFETCHER ACCESS:       1675  HIT:        629  MISS:       1046  HIT %:    37.5522  MISS %:    62.4478   MPKI: 0.02092
L2Cprefetch_cycle_count: 0 prefetches_per_prefetch_cycle: -nan
L2C PREFETCH  REQUESTED:          0  ISSUED:          0  USEFUL:       6630  USELESS:     556397
L2C USEFUL LOAD PREFETCHES:       6630 PREFETCH ISSUED TO LOWER LEVEL:     561565  ACCURACY: 1.18063
L2C TIMELY PREFETCHES:       6630 LATE PREFETCHES: 0 DROPPED PREFETCHES: 0
L2C PREFETCHES SAME FILL-ORIGIN LEVEL: 0 DIFFERENT FILL-ORIGIN LEVEL: 0
L2C AVERAGE MISS LATENCY: 168.786 cycles
L2C RQ	ACCESS:    1558610	FORWARD:          0	MERGED:          0	TO_CACHE:    1558584
L2C WQ	ACCESS:    1113893	FORWARD:         29	MERGED:          0	TO_CACHE:    1113893
L2C PQ	ACCESS:    3334209	FORWARD:          0	MERGED:          0	TO_CACHE:    3334206

L2C Instructions Evicting Data 130044
L2C Translations Evicting Data 28048
L2C Data Evicting Data 1523275
L2C Instructions Evicting Instructions 11013
L2C Translations Evicting Instructions 2801
L2C Data Evicting Instructions 127785
L2C Instructions Evicting Translations 2653
L2C Translations Evicting Translations 419
L2C Data Evicting Translations 27645
L2C Dense regions hint from L2: 0
PSCL5 TOTAL     ACCESS:      63530  HIT:      63530  MISS:          0  HIT %:        100  MISS %:          0   MPKI: 0
PSCL5 LOAD TRANSLATION ACCESS:      62414  HIT:      62414  MISS:          0  HIT %:        100  MISS %:          0   MPKI: 0
PSCL5 TRANSLATION FROM L1D PREFETCHER ACCESS:       1116  HIT:       1116  MISS:          0  HIT %:        100  MISS %:          0   MPKI: 0
PSCL5prefetch_cycle_count: 0 prefetches_per_prefetch_cycle: -nan
PSCL5 PREFETCH  REQUESTED:          0  ISSUED:          0  USEFUL:          0  USELESS:          0
PSCL5 USEFUL LOAD PREFETCHES:          0 PREFETCH ISSUED TO LOWER LEVEL:          0  ACCURACY: -nan
PSCL5 TIMELY PREFETCHES:          0 LATE PREFETCHES: 0 DROPPED PREFETCHES: 0
PSCL5 PREFETCHES SAME FILL-ORIGIN LEVEL: 0 DIFFERENT FILL-ORIGIN LEVEL: 0

PSCL4 TOTAL     ACCESS:      36188  HIT:      36058  MISS:        130  HIT %:    99.6408  MISS %:   0.359235   MPKI: 0.0026
PSCL4 LOAD TRANSLATION ACCESS:      35230  HIT:      35100  MISS:        130  HIT %:     99.631  MISS %:   0.369004   MPKI: 0.0026
PSCL4 TRANSLATION FROM L1D PREFETCHER ACCESS:        958  HIT:        958  MISS:          0  HIT %:        100  MISS %:          0   MPKI: 0
PSCL4prefetch_cycle_count: 0 prefetches_per_prefetch_cycle: -nan
PSCL4 PREFETCH  REQUESTED:          0  ISSUED:          0  USEFUL:          0  USELESS:          0
PSCL4 USEFUL LOAD PREFETCHES:          0 PREFETCH ISSUED TO LOWER LEVEL:          0  ACCURACY: -nan
PSCL4 TIMELY PREFETCHES:          0 LATE PREFETCHES: 0 DROPPED PREFETCHES: 0
PSCL4 PREFETCHES SAME FILL-ORIGIN LEVEL: 0 DIFFERENT FILL-ORIGIN LEVEL: 0

PSCL3 TOTAL     ACCESS:      63266  HIT:      62781  MISS:        485  HIT %:    99.2334  MISS %:   0.766604   MPKI: 0.0097
PSCL3 LOAD TRANSLATION ACCESS:      62293  HIT:      61808  MISS:        485  HIT %:    99.2214  MISS %:   0.778579   MPKI: 0.0097
PSCL3 TRANSLATION FROM L1D PREFETCHER ACCESS:        973  HIT:        973  MISS:          0  HIT %:        100  MISS %:          0   MPKI: 0
PSCL3prefetch_cycle_count: 0 prefetches_per_prefetch_cycle: -nan
PSCL3 PREFETCH  REQUESTED:          0  ISSUED:          0  USEFUL:          0  USELESS:          0
PSCL3 USEFUL LOAD PREFETCHES:          0 PREFETCH ISSUED TO LOWER LEVEL:          0  ACCURACY: -nan
PSCL3 TIMELY PREFETCHES:          0 LATE PREFETCHES: 0 DROPPED PREFETCHES: 0
PSCL3 PREFETCHES SAME FILL-ORIGIN LEVEL: 0 DIFFERENT FILL-ORIGIN LEVEL: 0

PSCL2 TOTAL     ACCESS:      63447  HIT:      38700  MISS:      24747  HIT %:    60.9958  MISS %:    39.0042   MPKI: 0.49494
PSCL2 LOAD TRANSLATION ACCESS:      62758  HIT:      38011  MISS:      24747  HIT %:    60.5676  MISS %:    39.4324   MPKI: 0.49494
PSCL2 TRANSLATION FROM L1D PREFETCHER ACCESS:        689  HIT:        689  MISS:          0  HIT %:        100  MISS %:          0   MPKI: 0
PSCL2prefetch_cycle_count: 0 prefetches_per_prefetch_cycle: -nan
PSCL2 PREFETCH  REQUESTED:          0  ISSUED:          0  USEFUL:          0  USELESS:          0
PSCL2 USEFUL LOAD PREFETCHES:          0 PREFETCH ISSUED TO LOWER LEVEL:          0  ACCURACY: -nan
PSCL2 TIMELY PREFETCHES:          0 LATE PREFETCHES: 0 DROPPED PREFETCHES: 0
PSCL2 PREFETCHES SAME FILL-ORIGIN LEVEL: 0 DIFFERENT FILL-ORIGIN LEVEL: 0

LLC TOTAL     ACCESS:    2896329  HIT:     995531  MISS:    1900798  HIT %:    34.3722  MISS %:    65.6278   MPKI: 38.016
LLC LOAD      ACCESS:     421195  HIT:     241641  MISS:     179554  HIT %:    57.3703  MISS %:    42.6297   MPKI: 3.59108
LLC RFO       ACCESS:     839650  HIT:     219923  MISS:     619727  HIT %:    26.1922  MISS %:    73.8078   MPKI: 12.3945
LLC PREFETCH  ACCESS:     561562  HIT:     161267  MISS:     400295  HIT %:    28.7176  MISS %:    71.2824   MPKI: 8.0059
LLC WRITEBACK ACCESS:    1042654  HIT:     359463  MISS:     683191  HIT %:    34.4758  MISS %:    65.5242   MPKI: 13.6638
LLC LOAD TRANSLATION ACCESS:      30222  HIT:      12880  MISS:      17342  HIT %:     42.618  MISS %:     57.382   MPKI: 0.34684
LLC TRANSLATION FROM L1D PREFETCHER ACCESS:       1046  HIT:        357  MISS:        689  HIT %:      34.13  MISS %:      65.87   MPKI: 0.01378
LLCprefetch_cycle_count: 0 prefetches_per_prefetch_cycle: -nan
LLC PREFETCH  REQUESTED:          0  ISSUED:          0  USEFUL:        768  USELESS:     400020
LLC USEFUL LOAD PREFETCHES:        768 PREFETCH ISSUED TO LOWER LEVEL:     400298  ACCURACY: 0.191857
LLC TIMELY PREFETCHES:        768 LATE PREFETCHES: 0 DROPPED PREFETCHES: 0
LLC PREFETCHES SAME FILL-ORIGIN LEVEL: 0 DIFFERENT FILL-ORIGIN LEVEL: 0
LLC AVERAGE MISS LATENCY: 137.431 cycles
LLC RQ	ACCESS:    1292122	FORWARD:          0	MERGED:          0	TO_CACHE:    1292114
LLC WQ	ACCESS:    1042655	FORWARD:          8	MERGED:          0	TO_CACHE:    1042655
LLC PQ	ACCESS:     561565	FORWARD:          0	MERGED:          0	TO_CACHE:     561565

LLC Dense regions hint to LLC: 0

RAW hits: 1309510
Loads Generated: 12088598
Loads sent to L1D: 10779091
Stores Generated: 8175295
Stores sent to L1D: 8175288
Major fault: 0 Minor fault: 24906
Allocated PAGES: 24906
I-Shadow cache 408 bytes
Touched + WorthPF tables 6144 bytes 
MMA filter 174 bytes 
FNL filter 272 bytes 
TOTAL PREFETCHER STORAGE SIZE: 25174 bytes
CPU 0 L1I next line prefetcher final stats

total_pref_operate_instances_l1: 7358936
dynamic_config_counter_instances_1: 643310
dynamic_config_counter_instances_2: 11536
dynamic_config_counter_instances_3: 10921
dynamic_config_counter_instances_4: 5748
dynamic_config_counter_instances_5: 6687421
stream: 
stream:times selected: 3894530
stream:pref_filled: 222574
stream:pref_useful: 35262
stream:pref_late: 8932
stream:misses: 32716
stream:misses_by_poll: 0

CS: 
CS:times selected: 3195062
CS:pref_filled: 607487
CS:pref_useful: 576374
CS:pref_late: 5869
CS:misses: 16313
CS:misses_by_poll: 303

CPLX: 
CPLX:times selected: 685663
CPLX:pref_filled: 71920
CPLX:pref_useful: 3481
CPLX:pref_late: 604
CPLX:misses: 94632
CPLX:misses_by_poll: 54

NL_L1: 
NL:times selected: 82011
NL:pref_filled: 34096
NL:pref_useful: 963
NL:pref_late: 724
NL:misses: 84531
NL:misses_by_poll: 151

total selections: 7857266
total_filled: 506618
total_useful: 292142
total_late: 16631
total_polluted: 508
total_misses_after_warmup: 634140
conflicts: 2172237
Degree Incremented Times: 86791
Degree Decremented Times: 160614

L1 IP Table Write Accesses: 4980464
L1 IP Table Read Accesses: 2808227
L1 RST Write Accesses: 1942180
L1 RST Read Accesses: 3884360
L1 CSPT Write Accesses: 1942180
L1 CSPT Read Accesses: 2412754
L1 RR Filter Tag Write Accesses: 940226
L1 RR Filter Tag Read Accesses: 363077904
L1 IP Table Tag Write Accesses: 7358936
L1 IP Table Tag Read Accesses: 7358936
L1 RST Tag Write Accesses: 0
L1 RST Tag Read Accesses: 17775475
L1 RR Filter Write Accesses: 0
L1 RR Filter Read Accesses: 12466847
test: 395353

DRAM Statistics
 CHANNEL 0
 RQ ROW_BUFFER_HIT:     451183  ROW_BUFFER_MISS:     766316
 DBUS_CONGESTED:        611
 WQ ROW_BUFFER_HIT:     173799  ROW_BUFFER_MISS:     545190  FULL:      14026

 AVG_CONGESTED_CYCLE: 3
 All warmup complete: 2
Channel 0 Bank busy for read cycles: 0
Channel 0 Bank busy for write cycles: 0
Channel 0
Rank 0
0banks busy for read cycles: 21764052
0banks busy for write cycles: 53231
1banks busy for read cycles: 20585756
1banks busy for write cycles: 8278913
2banks busy for read cycles: 13744064
2banks busy for write cycles: 4833547
3banks busy for read cycles: 7397049
3banks busy for write cycles: 3251305
4banks busy for read cycles: 3936563
4banks busy for write cycles: 2315119
5banks busy for read cycles: 1288181
5banks busy for write cycles: 1714781
6banks busy for read cycles: 1046210
6banks busy for write cycles: 1461729
7banks busy for read cycles: 1403266
7banks busy for write cycles: 2125495
8banks busy for read cycles: 3866443
8banks busy for write cycles: 8631798

CPU 0 Branch Prediction Accuracy: 99.2833% MPKI: 1.20566 Average ROB Occupancy at Mispredict: 136.661
Branch types
NOT_BRANCH: 41588317 83.1766%
BRANCH_DIRECT_JUMP: 464500 0.929%
BRANCH_INDIRECT: 45704 0.091408%
BRANCH_CONDITIONAL: 6147405 12.2948%
BRANCH_DIRECT_CALL: 675450 1.3509%
BRANCH_INDIRECT_CALL: 201532 0.403064%
BRANCH_RETURN: 876986 1.75397%
BRANCH_OTHER: 0 0%

DRAM PAGES: 1048576
Allocated PAGES: 24906
