Initialize SIGNATURE TABLE
ST_SET: 1
ST_WAY: 256
ST_TAG_BIT: 16
ST_TAG_MASK: ffff

Initialize PATTERN TABLE
PT_SET: 512
PT_WAY: 4
SIG_DELTA_BIT: 7
C_SIG_BIT: 4
C_DELTA_BIT: 4

Initialize PREFETCH FILTER
FILTER_SET: 1024
MANA initialize 
tds: 2 tdm: 4
size MANA SINGLE: 25.5 KB
size MANA NULTIPLE: 9.875 KB
size HOBPT: 0.703125 KB
size SRQ: 0.0644531 KB
size SABs: 0.0402832 KB
size prefetch queue: 0.453125 KB
total: 36.636 KB

*** ChampSim Multicore Out-of-Order Simulator ***

Warmup Instructions: 50000000
Simulation Instructions: 50000000
Number of CPUs: 1
LLC sets: 2048
LLC ways: 16
Off-chip DRAM Size: 4096 MB Channels: 1 Width: 64-bit Data Rate: 6400 MT/s
CPU 0 runs ../IPC-traces//server_001.champsimtrace.xz
.xz
BTB has LRU replacement policy
ITLB has LRU replacement policy
DTLB has LRU replacement policy
STLB has LRU replacement policy
L1I has LRU replacement policy
L1D has LRU replacement policy
Initialize SRRIP state for L2C
Initialize DRRIP state for LLC
Heartbeat CPU 0 instructions: 10000003 cycles: 2769167 heartbeat IPC: 3.6112 cumulative IPC: 3.6112 (Simulation time: 0 hr 5 min 12 sec) 
Heartbeat CPU 0 instructions: 20000003 cycles: 5551974 heartbeat IPC: 3.59349 cumulative IPC: 3.60232 (Simulation time: 0 hr 8 min 51 sec) 
Heartbeat CPU 0 instructions: 30000001 cycles: 8337152 heartbeat IPC: 3.59043 cumulative IPC: 3.59835 (Simulation time: 0 hr 12 min 12 sec) 
Heartbeat CPU 0 instructions: 40000001 cycles: 11134337 heartbeat IPC: 3.57502 cumulative IPC: 3.59249 (Simulation time: 0 hr 15 min 32 sec) 
Heartbeat CPU 0 instructions: 50000000 cycles: 13932690 heartbeat IPC: 3.57353 cumulative IPC: 3.58868 (Simulation time: 0 hr 18 min 20 sec) 

Warmup complete CPU 0 instructions: 50000004 cycles: 13932691 (Simulation time: 0 hr 18 min 20 sec) 

Epoch all ip prefetch: 0, epoch id: 2
Epoch all ip prefetch: 1, epoch id: 3
Epoch all ip prefetch: 0, epoch id: 4
Epoch all ip prefetch: 0, epoch id: 5
Epoch all ip prefetch: 0, epoch id: 6
Epoch all ip prefetch: 0, epoch id: 7
Epoch all ip prefetch: 0, epoch id: 8
Epoch all ip prefetch: 0, epoch id: 9
Epoch all ip prefetch: 0, epoch id: 10
Epoch all ip prefetch: 0, epoch id: 11
Heartbeat CPU 0 instructions: 60000002 cycles: 27581157 heartbeat IPC: 0.732683 cumulative IPC: 0.732683 (Simulation time: 0 hr 21 min 51 sec) 
Epoch all ip prefetch: 0, epoch id: 12
Epoch all ip prefetch: 0, epoch id: 13
Epoch all ip prefetch: 0, epoch id: 14
Epoch all ip prefetch: 0, epoch id: 15
Epoch all ip prefetch: 0, epoch id: 16
Epoch all ip prefetch: 0, epoch id: 17
Epoch all ip prefetch: 0, epoch id: 18
Epoch all ip prefetch: 0, epoch id: 19
Epoch all ip prefetch: 0, epoch id: 20
Epoch all ip prefetch: 0, epoch id: 21
Heartbeat CPU 0 instructions: 70000001 cycles: 40517564 heartbeat IPC: 0.773012 cumulative IPC: 0.752307 (Simulation time: 0 hr 25 min 14 sec) 
Epoch all ip prefetch: 0, epoch id: 22
Epoch all ip prefetch: 0, epoch id: 23
Epoch all ip prefetch: 0, epoch id: 24
Epoch all ip prefetch: 0, epoch id: 25
Epoch all ip prefetch: 0, epoch id: 26
Epoch all ip prefetch: 0, epoch id: 27
Epoch all ip prefetch: 0, epoch id: 28
Epoch all ip prefetch: 0, epoch id: 29
Epoch all ip prefetch: 0, epoch id: 30
Epoch all ip prefetch: 0, epoch id: 31
Heartbeat CPU 0 instructions: 80000003 cycles: 53347819 heartbeat IPC: 0.779408 cumulative IPC: 0.761129 (Simulation time: 0 hr 28 min 35 sec) 
Epoch all ip prefetch: 0, epoch id: 32
Epoch all ip prefetch: 0, epoch id: 33
Epoch all ip prefetch: 0, epoch id: 34
Epoch all ip prefetch: 0, epoch id: 35
Epoch all ip prefetch: 0, epoch id: 36
Epoch all ip prefetch: 0, epoch id: 37
Epoch all ip prefetch: 0, epoch id: 38
Epoch all ip prefetch: 0, epoch id: 39
Epoch all ip prefetch: 0, epoch id: 40
Epoch all ip prefetch: 0, epoch id: 41
Heartbeat CPU 0 instructions: 90000002 cycles: 67054692 heartbeat IPC: 0.729561 cumulative IPC: 0.752984 (Simulation time: 0 hr 31 min 58 sec) 
Epoch all ip prefetch: 0, epoch id: 42
Epoch all ip prefetch: 0, epoch id: 43
Epoch all ip prefetch: 0, epoch id: 44
Epoch all ip prefetch: 0, epoch id: 45
Epoch all ip prefetch: 0, epoch id: 46
Epoch all ip prefetch: 0, epoch id: 47
Epoch all ip prefetch: 0, epoch id: 48
Epoch all ip prefetch: 0, epoch id: 49
Epoch all ip prefetch: 0, epoch id: 50
Epoch all ip prefetch: 0, epoch id: 51
Heartbeat CPU 0 instructions: 100000003 cycles: 79961505 heartbeat IPC: 0.774785 cumulative IPC: 0.757245 (Simulation time: 0 hr 35 min 16 sec) 
Finished CPU 0 instructions: 50000003 cycles: 66028815 cumulative IPC: 0.757245 (Simulation time: 0 hr 35 min 16 sec) 

ChampSim completed all CPUs

Region of Interest Statistics

CPU 0 cumulative IPC: 0.757245 instructions: 50000003 cycles: 66028815

CPU 0 Average Load ROB stall cycles: 5.06774
CPU 0 Fraction of times ROB stalled by Loads: 32.9127
CPU 0 Percentage of Load stall cycles in Total stall cycles: 61.6505
CPU 0 NUM of IPS identified critical: 0

Average ROB occupancy Load Stall Begin: 69.0205
Average ROB occupancy Load Stall End: 80.5322
Min ROB occupancy Load Stall Begin: 1
Max ROB occupancy Load Stall Begin: 351
Min ROB occupancy Load Stall End: 1
Max ROB occupancy Load Stall End: 352
Average ROB occupancy Critical Load Stall Begin: -nan
Average ROB occupancy Critical Load Stall End: -nan
Min ROB occupancy Critical Load Stall Begin: 400
Max ROB occupancy Critical Load Stall Begin: 0
Min ROB occupancy Critical Load Stall End: 400
Max ROB occupancy Critical Load Stall End: 0
 ROB Load Stall Begin Bucket Count 0: 977176
 ROB Load Stall End Bucket Count 0: 732447
 ROB Critical Load Stall Begin Bucket Count 0: 0
 ROB Critical Load Stall End Bucket Count 0: 0
 ROB Load Stall Begin Bucket Count 1: 473156
 ROB Load Stall End Bucket Count 1: 646580
 ROB Critical Load Stall Begin Bucket Count 1: 0
 ROB Critical Load Stall End Bucket Count 1: 0
 ROB Load Stall Begin Bucket Count 2: 137337
 ROB Load Stall End Bucket Count 2: 178403
 ROB Critical Load Stall Begin Bucket Count 2: 0
 ROB Critical Load Stall End Bucket Count 2: 0
 ROB Load Stall Begin Bucket Count 3: 56576
 ROB Load Stall End Bucket Count 3: 70728
 ROB Critical Load Stall Begin Bucket Count 3: 0
 ROB Critical Load Stall End Bucket Count 3: 0
 ROB Load Stall Begin Bucket Count 4: 40348
 ROB Load Stall End Bucket Count 4: 43331
 ROB Critical Load Stall Begin Bucket Count 4: 0
 ROB Critical Load Stall End Bucket Count 4: 0
 ROB Load Stall Begin Bucket Count 5: 39284
 ROB Load Stall End Bucket Count 5: 41552
 ROB Critical Load Stall Begin Bucket Count 5: 0
 ROB Critical Load Stall End Bucket Count 5: 0
 ROB Load Stall Begin Bucket Count 6: 51681
 ROB Load Stall End Bucket Count 6: 62517
 ROB Critical Load Stall Begin Bucket Count 6: 0
 ROB Critical Load Stall End Bucket Count 6: 0
Threshold Modified: 1 times, factor: -1
Sturdy critical IP cache stats: 
 Unused entries: 99
Wobbly critical IP cache stats: 
 Unused entries: 247
ITLB TOTAL     ACCESS:    9880101  HIT:    9717536  MISS:     162565  HIT %:    98.3546  MISS %:    1.64538   MPKI: 3.2513
ITLB LOAD TRANSLATION ACCESS:    7244217  HIT:    7207121  MISS:      37096  HIT %:    99.4879  MISS %:   0.512077   MPKI: 0.74192
ITLB TRANSLATION FROM L1D PREFETCHER ACCESS:    2635884  HIT:    2510415  MISS:     125469  HIT %:      95.24  MISS %:    4.76003   MPKI: 2.50938
ITLB AVERAGE MISS LATENCY: 1.4698e+06 cycles
ITLB RQ	ACCESS:   18159894	FORWARD:          0	MERGED:    8202451	TO_CACHE:    9957443

DTLB TOTAL     ACCESS:    9932364  HIT:    9621809  MISS:     310555  HIT %:    96.8733  MISS %:     3.1267   MPKI: 6.2111
DTLB LOAD TRANSLATION ACCESS:    9932364  HIT:    9621809  MISS:     310555  HIT %:    96.8733  MISS %:     3.1267   MPKI: 6.2111
DTLB AVERAGE MISS LATENCY: 21.9258 cycles
DTLB RQ	ACCESS:   12169819	FORWARD:          0	MERGED:    2223030	TO_CACHE:    9946789

STLB TOTAL     ACCESS:     473120  HIT:     442293  MISS:      30827  HIT %:    93.4843  MISS %:    6.51568   MPKI: 0.61654
STLB LOAD TRANSLATION ACCESS:     342708  HIT:     315050  MISS:      27658  HIT %:    91.9296  MISS %:    8.07043   MPKI: 0.55316
STLB TRANSLATION FROM L1D PREFETCHER ACCESS:     130412  HIT:     127243  MISS:       3169  HIT %:      97.57  MISS %:    2.42999   MPKI: 0.06338
STLB AVERAGE MISS LATENCY: 151.212 cycles
STLB RQ	ACCESS:     512824	FORWARD:          0	MERGED:          0	TO_CACHE:     512824

STLB Hit, L1D data hit: 0
STLB Hit, L2C data hit: 0
STLB Hit, LLC data hit: 0
STLB Hit, LLC data miss: 0
STLB STLB hints to L2: 0
L1D TOTAL     ACCESS:   11814694  HIT:   11404662  MISS:     410032  HIT %:    96.5295  MISS %:    3.47053   MPKI: 8.20064
L1D LOAD      ACCESS:    6808905  HIT:    6495372  MISS:     313533  HIT %:    95.3953  MISS %:    4.60475   MPKI: 6.27066
L1D RFO       ACCESS:    5005789  HIT:    4909290  MISS:      96499  HIT %:    98.0723  MISS %:    1.92775   MPKI: 1.92998
L1D AVERAGE MISS LATENCY: 82.659 cycles
L1D RQ	ACCESS:   10581481	FORWARD:          0	MERGED:    3652375	TO_CACHE:    6850480
L1D WQ	ACCESS:    5417473	FORWARD:      78626	MERGED:      98134	TO_CACHE:    5319339

L1D UNIQUE REGIONS ACCESSED: 0
L1D REGIONS CONFLICTS: 0
L1D Cross Page Prefetch Requests: 0
L1D Same Page Prefetch Requests: 0
L1D ROI Sum of L1D PQ occupancy: 0
L1D PREFETCHES PUSHED FROM L2C: 0
L1I TOTAL     ACCESS:   17977179  HIT:   17255001  MISS:     722178  HIT %:    95.9828  MISS %:    4.01719   MPKI: 14.4436
L1I LOAD      ACCESS:    8990910  HIT:    8855543  MISS:     135367  HIT %:    98.4944  MISS %:     1.5056   MPKI: 2.70734
L1I PREFETCH  ACCESS:    8986269  HIT:    8399458  MISS:     586811  HIT %:    93.4699  MISS %:    6.53008   MPKI: 11.7362
L1I PREFETCH  REQUESTED:   10673577  ISSUED:    9445062  USEFUL:     428595  USELESS:     158300
L1I USEFUL LOAD PREFETCHES:     428595 PREFETCH ISSUED TO LOWER LEVEL:     610600  ACCURACY: 70.1924
L1I TIMELY PREFETCHES:     428595 LATE PREFETCHES: 23769 DROPPED PREFETCHES: 39762
L1I AVERAGE MISS LATENCY: 1.5488e+06 cycles
L1I RQ	ACCESS:   13232547	FORWARD:          0	MERGED:    4207631	TO_CACHE:    9024916
L1I PQ	ACCESS:    9445062	FORWARD:          0	MERGED:     310084	TO_CACHE:    9134978

BTB TOTAL     ACCESS:    3947219  HIT:    3651669  MISS:     295550  HIT %:    92.5124  MISS %:    7.48755   MPKI: 5.911
BTB BRANCH_DIRECT_JUMP	ACCESS:     347940  HIT:     337010  MISS:      10930
BTB BRANCH_INDIRECT	ACCESS:     148210  HIT:      89092  MISS:      59118
BTB BRANCH_CONDITIONAL	ACCESS:    2238093  HIT:    2191946  MISS:      46147
BTB BRANCH_DIRECT_CALL	ACCESS:     570722  HIT:     551838  MISS:      18884
BTB BRANCH_INDIRECT_CALL	ACCESS:      25133  HIT:      23193  MISS:       1940
BTB BRANCH_RETURN	ACCESS:     617121  HIT:     458590  MISS:     158531
BTB BRANCH_OTHER ACCESS:          0  HIT:          0  MISS:          0

L2C TOTAL     ACCESS:    1933131  HIT:    1471623  MISS:     461508  HIT %:    76.1264  MISS %:    23.8736   MPKI: 9.23016
L2C LOAD      ACCESS:     425128  HIT:     202669  MISS:     222459  HIT %:    47.6725  MISS %:    52.3275   MPKI: 4.44918
L2C DATA LOAD MPKI: 3.42714
L2C INSTRUCTION LOAD MPKI: 1.02204
L2C RFO       ACCESS:      96499  HIT:      16657  MISS:      79842  HIT %:    17.2613  MISS %:    82.7387   MPKI: 1.59684
L2C PREFETCH  ACCESS:    1100702  HIT:     973451  MISS:     127251  HIT %:    88.4391  MISS %:    11.5609   MPKI: 2.54502
L2C DATA PREFETCH MPKI: 0.53226
L2C INSTRUCTION PREFETCH MPKI: 2.01276
L2C WRITEBACK ACCESS:     204313  HIT:     194858  MISS:       9455  HIT %:    95.3723  MISS %:     4.6277   MPKI: 0.1891
L2C LOAD TRANSLATION ACCESS:      36203  HIT:      15703  MISS:      20500  HIT %:    43.3749  MISS %:    56.6251   MPKI: 0.41
L2C TRANSLATION FROM L1D PREFETCHER ACCESS:      70286  HIT:      68285  MISS:       2001  HIT %:    97.1531  MISS %:    2.84694   MPKI: 0.04002
L2C PREFETCH  REQUESTED:    1733632  ISSUED:    1728375  USEFUL:      31908  USELESS:      98882
L2C USEFUL LOAD PREFETCHES:      31908 PREFETCH ISSUED TO LOWER LEVEL:     723861  ACCURACY: 4.40803
L2C TIMELY PREFETCHES:      31908 LATE PREFETCHES: 2296 DROPPED PREFETCHES: 0
L2C AVERAGE MISS LATENCY: 87.7037 cycles
L2C RQ	ACCESS:     628117	FORWARD:          0	MERGED:          0	TO_CACHE:     628115
L2C WQ	ACCESS:     204313	FORWARD:          3	MERGED:          0	TO_CACHE:     204313
L2C PQ	ACCESS:    2338953	FORWARD:          0	MERGED:     621491	TO_CACHE:    1717461

L2C Instructions Evicting Data92860
L2C Translations Evicting Data13788
L2C Data Evicting Data173023
L2C Instructions Evicting Instructions51839
L2C Translations Evicting Instructions7584
L2C Data Evicting Instructions90886
L2C Instructions Evicting Translations7041
L2C Translations Evicting Translations1129
L2C Data Evicting Translations13903
L2C Dense regions hint from L2: 0
PSCL5 TOTAL     ACCESS:      70531  HIT:      70531  MISS:          0  HIT %:        100  MISS %:          0   MPKI: 0
PSCL5 LOAD TRANSLATION ACCESS:      27658  HIT:      27658  MISS:          0  HIT %:        100  MISS %:          0   MPKI: 0
PSCL5 TRANSLATION FROM L1D PREFETCHER ACCESS:      42873  HIT:      42873  MISS:          0  HIT %:        100  MISS %:          0   MPKI: 0

PSCL4 TOTAL     ACCESS:      69842  HIT:      69752  MISS:         90  HIT %:    99.8711  MISS %:   0.128862   MPKI: 0.0018
PSCL4 LOAD TRANSLATION ACCESS:      27179  HIT:      27089  MISS:         90  HIT %:    99.6689  MISS %:   0.331138   MPKI: 0.0018
PSCL4 TRANSLATION FROM L1D PREFETCHER ACCESS:      42663  HIT:      42663  MISS:          0  HIT %:        100  MISS %:          0   MPKI: 0

PSCL3 TOTAL     ACCESS:      70271  HIT:      70181  MISS:         90  HIT %:    99.8719  MISS %:   0.128076   MPKI: 0.0018
PSCL3 LOAD TRANSLATION ACCESS:      27608  HIT:      27518  MISS:         90  HIT %:     99.674  MISS %:   0.325992   MPKI: 0.0018
PSCL3 TRANSLATION FROM L1D PREFETCHER ACCESS:      42663  HIT:      42663  MISS:          0  HIT %:        100  MISS %:          0   MPKI: 0

PSCL2 TOTAL     ACCESS:      43825  HIT:      34881  MISS:       8944  HIT %:    79.5916  MISS %:    20.4084   MPKI: 0.17888
PSCL2 LOAD TRANSLATION ACCESS:      28190  HIT:      19246  MISS:       8944  HIT %:    68.2724  MISS %:    31.7276   MPKI: 0.17888
PSCL2 TRANSLATION FROM L1D PREFETCHER ACCESS:      15635  HIT:      15635  MISS:          0  HIT %:        100  MISS %:          0   MPKI: 0

LLC TOTAL     ACCESS:    1185551  HIT:     863753  MISS:     321798  HIT %:    72.8567  MISS %:    27.1433   MPKI: 6.43596
LLC LOAD      ACCESS:     220162  HIT:     169010  MISS:      51152  HIT %:    76.7662  MISS %:    23.2338   MPKI: 1.02304
LLC RFO       ACCESS:      79840  HIT:      10886  MISS:      68954  HIT %:    13.6348  MISS %:    86.3652   MPKI: 1.37908
LLC PREFETCH  ACCESS:     698955  HIT:     521295  MISS:     177660  HIT %:    74.5821  MISS %:    25.4179   MPKI: 3.5532
LLC WRITEBACK ACCESS:     164093  HIT:     150551  MISS:      13542  HIT %:    91.7474  MISS %:    8.25264   MPKI: 0.27084
LLC LOAD TRANSLATION ACCESS:      20500  HIT:      10378  MISS:      10122  HIT %:    50.6244  MISS %:    49.3756   MPKI: 0.20244
LLC TRANSLATION FROM L1D PREFETCHER ACCESS:       2001  HIT:       1633  MISS:        368  HIT %:    81.6092  MISS %:    18.3908   MPKI: 0.00736
LLC AVERAGE MISS LATENCY: 160.866 cycles
LLC RQ	ACCESS:     322506	FORWARD:          0	MERGED:          0	TO_CACHE:     322503
LLC WQ	ACCESS:     164093	FORWARD:          3	MERGED:          0	TO_CACHE:     164093
LLC PQ	ACCESS:     723861	FORWARD:          0	MERGED:       7936	TO_CACHE:     715925

LLC Dense regions hint to LLC: 0

RAW hits: 1150686
Loads Generated: 11732167
Loads sent to L1D: 10581481
Stores Generated: 5417460
Stores sent to L1D: 5417473
Major fault: 0 Minor fault: 17223
Allocated PAGES: 17223



Printing Logs
statHeadFound: 1292449
statHeadMissing: 1199196
statStreamBufferHit: 10816647
statPrefetchEntryFound: 5405479
statCompactorMatch: 11219224
statStreamTrackerLookup: 13308292
statRecord: 2089068
statGetPointer: 2491645
statEnqueuePrefetch: 17962659
statPrefetchQueueIsFull: 124
StreamBufferHitRate: 0.812775
Regions' size: 3917
next_region_correct: 1707505
next_region_wrong: 377638
next_region_correct_prediction: 0.818891
statStreamBufferLookups: 133082920
statL1iLookups: 143701272
statCompactorLookups: 212932672
------------------
Depth Distribution
------------------
depth 0: 0
depth 1: 1599632
depth 2: 875322
depth 3: 419700
depth 4: 225790
depth 5: 128594
depth 6: 66511
depth 7: 30764
depth 8: 15866
depth 9: 6017
depth 10: 1614
depth 11: 434
depth 12: 57
depth 13: 0
depth 14: 0
depth 15: 0
depth 16: 0
depth 17: 0
depth 18: 0
depth 19: 0
depth 20: 0
depth 21: 0
depth 22: 0
depth 23: 0
depth 24: 0
depth 25: 0
depth 26: 0
depth 27: 0
depth 28: 0
depth 29: 0
Total: 3370301
-----------------------------
-----------------------------
	Captured at Filter
-----------------------------
depth 0: 0
depth 1: 132001
depth 2: 95782
depth 3: 62524
depth 4: 34796
depth 5: 14918
depth 6: 3370
depth 7: 845
depth 8: 170
depth 9: 18
depth 10: 5
depth 11: 4
depth 12: 0
depth 13: 0
depth 14: 0
depth 15: 0
depth 16: 0
depth 17: 0
depth 18: 0
depth 19: 0
depth 20: 0
depth 21: 0
depth 22: 0
depth 23: 0
depth 24: 0
depth 25: 0
depth 26: 0
depth 27: 0
depth 28: 0
depth 29: 0
-----------------------------
-----------------------------
		Lost at Page
-----------------------------
depth 0: 0
depth 1: 44672
depth 2: 31550
depth 3: 20572
depth 4: 15221
depth 5: 11305
depth 6: 7114
depth 7: 3948
depth 8: 2407
depth 9: 1060
depth 10: 337
depth 11: 99
depth 12: 9
depth 13: 0
depth 14: 0
depth 15: 0
depth 16: 0
depth 17: 0
depth 18: 0
depth 19: 0
depth 20: 0
depth 21: 0
depth 22: 0
depth 23: 0
depth 24: 0
depth 25: 0
depth 26: 0
depth 27: 0
depth 28: 0
depth 29: 0
-----------------------------
-----------------------------
	Lost due to PQ Size
-----------------------------
45900
-----------------------------
ST read accesses: 399888936
ST write accesses: 36540613
PT read accesses: 15293658
PT write accesses: 1120584
FILTER read accesses: 3279566
FILTER write accesses: 604837
GHR read accesses: 1087178
GHR write accesses: 64003
GHR counter read accesses: 13040770
GHR counter write accesses: 1059074

DRAM Statistics
 CHANNEL 0
 RQ ROW_BUFFER_HIT:      86929  ROW_BUFFER_MISS:     221317
 DBUS_CONGESTED:        210
 WQ ROW_BUFFER_HIT:      31167  ROW_BUFFER_MISS:     126161  FULL:          0

 AVG_CONGESTED_CYCLE: 4

CPU 0 Branch Prediction Accuracy: 99.5889% MPKI: 0.70112 Average ROB Occupancy at Mispredict: 75.3635
Branch types
NOT_BRANCH: 41473538 82.9471%
BRANCH_DIRECT_JUMP: 347940 0.69588%
BRANCH_INDIRECT: 148210 0.29642%
BRANCH_CONDITIONAL: 6817271 13.6345%
BRANCH_DIRECT_CALL: 570722 1.14144%
BRANCH_INDIRECT_CALL: 25133 0.050266%
BRANCH_RETURN: 617121 1.23424%
BRANCH_OTHER: 0 0%

DRAM PAGES: 1048576
Allocated PAGES: 17223
