
*** ChampSim Multicore Out-of-Order Simulator ***

Warmup Instructions: 50000000
Simulation Instructions: 50000000
Number of CPUs: 1
LLC sets: 2048
LLC ways: 16
Off-chip DRAM Size: 4096 MB Channels: 1 Width: 64-bit Data Rate: 6400 MT/s
CPU 0 runs ../IPC-traces//server_018.champsimtrace.xz
.xz
NUM_OF_IPS_IN_CRITICAL_IP_TRAINING: 64
NUM_OF_CRITICAL_IP_TRAINING_TABLE_WAYS: 2
NUM_OF_CRITICAL_IP_TRAINING_TABLE_SETS: 32
WOBBLY_CRITICAL_IP_CACHE_SETS: 32
WOBBLY_CRITICAL_IP_CACHE_WAYS: 4
BTB has LRU replacement policy
ITLB has LRU replacement policy
DTLB has LRU replacement policy
STLB has LRU replacement policy
CPU 0 L1I next line prefetcher
L1I has LRU replacement policy
IP Table Entries: 256
L1D has LRU replacement policy
Initialize SRRIP state for L2C
Initialize DRRIP state for LLC
Heartbeat CPU 0 instructions: 10000003 cycles: 3145728 heartbeat IPC: 3.17892 cumulative IPC: 3.17892 (Simulation time: 0 hr 2 min 40 sec) 
Heartbeat CPU 0 instructions: 20000001 cycles: 6289308 heartbeat IPC: 3.18109 cumulative IPC: 3.18 (Simulation time: 0 hr 5 min 20 sec) 
Heartbeat CPU 0 instructions: 30000001 cycles: 9351140 heartbeat IPC: 3.26602 cumulative IPC: 3.20817 (Simulation time: 0 hr 7 min 55 sec) 
Heartbeat CPU 0 instructions: 40000002 cycles: 12422267 heartbeat IPC: 3.25613 cumulative IPC: 3.22002 (Simulation time: 0 hr 10 min 35 sec) 
Heartbeat CPU 0 instructions: 50000003 cycles: 15559427 heartbeat IPC: 3.1876 cumulative IPC: 3.21349 (Simulation time: 0 hr 13 min 8 sec) 

Warmup complete CPU 0 instructions: 50000003 cycles: 15559427 (Simulation time: 0 hr 13 min 8 sec) 

% increase in all ip prefetch 434.772
% increase in all ip prefetch -12.3134
Heartbeat CPU 0 instructions: 60000000 cycles: 35440627 heartbeat IPC: 0.502988 cumulative IPC: 0.502988 (Simulation time: 0 hr 16 min 33 sec) 
Heartbeat CPU 0 instructions: 70000000 cycles: 55184610 heartbeat IPC: 0.506483 cumulative IPC: 0.504729 (Simulation time: 0 hr 20 min 1 sec) 
Heartbeat CPU 0 instructions: 80000000 cycles: 74769833 heartbeat IPC: 0.510589 cumulative IPC: 0.506668 (Simulation time: 0 hr 23 min 22 sec) 
Heartbeat CPU 0 instructions: 90000000 cycles: 93686360 heartbeat IPC: 0.528638 cumulative IPC: 0.511987 (Simulation time: 0 hr 28 min 39 sec) 
Heartbeat CPU 0 instructions: 100000001 cycles: 112279762 heartbeat IPC: 0.537825 cumulative IPC: 0.516954 (Simulation time: 0 hr 33 min 9 sec) 
Finished CPU 0 instructions: 50000002 cycles: 96720336 cumulative IPC: 0.516954 (Simulation time: 0 hr 33 min 9 sec) 

ChampSim completed all CPUs

Region of Interest Statistics

CPU 0 cumulative IPC: 0.516954 instructions: 50000002 cycles: 96720336

CPU 0 Average Load ROB stall cycles: 2.95161e+07
CPU 0 Fraction of times ROB stalled by Loads: 45.63
CPU 0 Percentage of Load stall cycles in Total stall cycles: 2.63395e+08
Issued all: 48874762
Issued LT all: 43552559
rob_not_full_when_issued_lt_all: 16945011
Issued LT one: 37773403
rob_not_full_when_issued_lt_one: 12931214
critical_ip_candidate_identification_operations: 6454434
critical_ip_candidate_identification_operation_per_cycle: 0.066733
 Total stall cycles: 79255521
 Total load stall cycles: 208755367121811
Unique Load IPs: 6266
CPU 0 NUM of IPS identified critical: 11
CPU 0 Num of Load IPs stalling ROB: 4972
Threshold modification factor: -1
Max PIST entries: 64
Min PIST entries: 0
Avg PIST entries: 32
Trouble in retire width: 0.804193
MaC = Marked as critical.
lt_50_percent_before_Mac: 10
gt_90_percent_before_Mac: 0
gt_75_percent_before_Mac: 1
gt_50_percent_before_Mac: 0
stall_proportion_bin_same_before_after: 0
stall_proportion_bin_lower_before_after: 0
stall_proportion_bin_upper_before_after: 0
average_stall_proportion_before: 0.0546004
average_stall_proportion_after: 0.0552997
Critical IP stalls, total frequency: 1447110
Non-critical IP stalls, total frequency: 1780107
Total Freq all stalling IPs: 3227217
Critical_IP_Detector_Accuracy_70: 1
Critical_IP_Detector_Accuracy_80: 1
Critical_IP_Detector_Accuracy_90: 1
Critical_IP_Detector_Coverage_70: 0.0654762
Critical_IP_Detector_Coverage_80: 0.0358306
Critical_IP_Detector_Coverage_90: 0.0225873
stat_90_percent_critical_ip_stalls_freq: 2904932
stat_90_percent_non_critical_ip_stalls_freq: 322285
AVERAGE_ROB_Occupancy_90_Percent_Critical_IP_Stalls: 202.023
AVERAGE_ROB_Occupancy_90_Percent_Non_Critical_IP_Stalls: 107.639
Critical_IP_ROB_Stalls_Bucket_0: 7381
Non-critical_IP_ROB_Stalls_Bucket_0: 479238
Critical_IP_ROB_Stalls_Bucket_1: 39514
Non-critical_IP_ROB_Stalls_Bucket_1: 562781
Critical_IP_ROB_Stalls_Bucket_2: 94725
Non-critical_IP_ROB_Stalls_Bucket_2: 357914
Critical_IP_ROB_Stalls_Bucket_3: 126851
Non-critical_IP_ROB_Stalls_Bucket_3: 151822
Critical_IP_ROB_Stalls_Bucket_4: 102228
Non-critical_IP_ROB_Stalls_Bucket_4: 67051
Critical_IP_ROB_Stalls_Bucket_5: 101541
Non-critical_IP_ROB_Stalls_Bucket_5: 50784
Critical_IP_ROB_Stalls_Bucket_6: 974870
Non-critical_IP_ROB_Stalls_Bucket_6: 110517
0 => IPs accounting for >50 percent of stalls, 1 => 55, 2 => 60, 3 => 65 and so on till 90.
percent50: 50.1177 num IPs:  11
percent55: 55.1301 num IPs: 28
percent60: 60.0465 num IPs: 57
percent65: 65.0449 num IPs: 100
percent70: 70.0667 num IPs: 168
percent75: 75.0603 num IPs: 237
percent80: 80.0087 num IPs: 307
percent85: 85.0314 num IPs: 386
percent90: 90.0137 num IPs: 487
Critical_ROB_Stalls_Percent_0_Bucket_0: 44308
Non-critical_ROB_Stalls_Percent_0_Bucket_0: 442311
Critical_ROB_Stalls_Percent_0_Bucket_1: 110672
Non-critical_ROB_Stalls_Percent_0_Bucket_1: 491623
Critical_ROB_Stalls_Percent_0_Bucket_2: 147969
Non-critical_ROB_Stalls_Percent_0_Bucket_2: 304670
Critical_ROB_Stalls_Percent_0_Bucket_3: 137659
Non-critical_ROB_Stalls_Percent_0_Bucket_3: 141014
Critical_ROB_Stalls_Percent_0_Bucket_4: 109585
Non-critical_ROB_Stalls_Percent_0_Bucket_4: 59694
Critical_ROB_Stalls_Percent_0_Bucket_5: 105053
Non-critical_ROB_Stalls_Percent_0_Bucket_5: 47272
Critical_ROB_Stalls_Percent_0_Bucket_6: 962161
Non-critical_ROB_Stalls_Percent_0_Bucket_6: 123226
Critical_ROB_Stalls_Percent_1_Bucket_0: 107022
Non-critical_ROB_Stalls_Percent_1_Bucket_0: 379597
Critical_ROB_Stalls_Percent_1_Bucket_1: 163663
Non-critical_ROB_Stalls_Percent_1_Bucket_1: 438632
Critical_ROB_Stalls_Percent_1_Bucket_2: 164561
Non-critical_ROB_Stalls_Percent_1_Bucket_2: 288078
Critical_ROB_Stalls_Percent_1_Bucket_3: 156979
Non-critical_ROB_Stalls_Percent_1_Bucket_3: 121694
Critical_ROB_Stalls_Percent_1_Bucket_4: 114793
Non-critical_ROB_Stalls_Percent_1_Bucket_4: 54486
Critical_ROB_Stalls_Percent_1_Bucket_5: 107779
Non-critical_ROB_Stalls_Percent_1_Bucket_5: 44546
Critical_ROB_Stalls_Percent_1_Bucket_6: 964371
Non-critical_ROB_Stalls_Percent_1_Bucket_6: 121016
Critical_ROB_Stalls_Percent_2_Bucket_0: 163397
Non-critical_ROB_Stalls_Percent_2_Bucket_0: 323222
Critical_ROB_Stalls_Percent_2_Bucket_1: 193659
Non-critical_ROB_Stalls_Percent_2_Bucket_1: 408636
Critical_ROB_Stalls_Percent_2_Bucket_2: 192453
Non-critical_ROB_Stalls_Percent_2_Bucket_2: 260186
Critical_ROB_Stalls_Percent_2_Bucket_3: 165324
Non-critical_ROB_Stalls_Percent_2_Bucket_3: 113349
Critical_ROB_Stalls_Percent_2_Bucket_4: 117590
Non-critical_ROB_Stalls_Percent_2_Bucket_4: 51689
Critical_ROB_Stalls_Percent_2_Bucket_5: 113773
Non-critical_ROB_Stalls_Percent_2_Bucket_5: 38552
Critical_ROB_Stalls_Percent_2_Bucket_6: 991636
Non-critical_ROB_Stalls_Percent_2_Bucket_6: 93751
Critical_ROB_Stalls_Percent_3_Bucket_0: 203132
Non-critical_ROB_Stalls_Percent_3_Bucket_0: 283487
Critical_ROB_Stalls_Percent_3_Bucket_1: 236283
Non-critical_ROB_Stalls_Percent_3_Bucket_1: 366012
Critical_ROB_Stalls_Percent_3_Bucket_2: 229109
Non-critical_ROB_Stalls_Percent_3_Bucket_2: 223530
Critical_ROB_Stalls_Percent_3_Bucket_3: 174987
Non-critical_ROB_Stalls_Percent_3_Bucket_3: 103686
Critical_ROB_Stalls_Percent_3_Bucket_4: 124941
Non-critical_ROB_Stalls_Percent_3_Bucket_4: 44338
Critical_ROB_Stalls_Percent_3_Bucket_5: 120663
Non-critical_ROB_Stalls_Percent_3_Bucket_5: 31662
Critical_ROB_Stalls_Percent_3_Bucket_6: 1010027
Non-critical_ROB_Stalls_Percent_3_Bucket_6: 75360
Critical_ROB_Stalls_Percent_4_Bucket_0: 222238
Non-critical_ROB_Stalls_Percent_4_Bucket_0: 264381
Critical_ROB_Stalls_Percent_4_Bucket_1: 288395
Non-critical_ROB_Stalls_Percent_4_Bucket_1: 313900
Critical_ROB_Stalls_Percent_4_Bucket_2: 268025
Non-critical_ROB_Stalls_Percent_4_Bucket_2: 184614
Critical_ROB_Stalls_Percent_4_Bucket_3: 206817
Non-critical_ROB_Stalls_Percent_4_Bucket_3: 71856
Critical_ROB_Stalls_Percent_4_Bucket_4: 131415
Non-critical_ROB_Stalls_Percent_4_Bucket_4: 37864
Critical_ROB_Stalls_Percent_4_Bucket_5: 127090
Non-critical_ROB_Stalls_Percent_4_Bucket_5: 25235
Critical_ROB_Stalls_Percent_4_Bucket_6: 1017222
Non-critical_ROB_Stalls_Percent_4_Bucket_6: 68165
Critical_ROB_Stalls_Percent_5_Bucket_0: 254700
Non-critical_ROB_Stalls_Percent_5_Bucket_0: 231919
Critical_ROB_Stalls_Percent_5_Bucket_1: 348230
Non-critical_ROB_Stalls_Percent_5_Bucket_1: 254065
Critical_ROB_Stalls_Percent_5_Bucket_2: 296356
Non-critical_ROB_Stalls_Percent_5_Bucket_2: 156283
Critical_ROB_Stalls_Percent_5_Bucket_3: 218094
Non-critical_ROB_Stalls_Percent_5_Bucket_3: 60579
Critical_ROB_Stalls_Percent_5_Bucket_4: 146993
Non-critical_ROB_Stalls_Percent_5_Bucket_4: 22286
Critical_ROB_Stalls_Percent_5_Bucket_5: 133287
Non-critical_ROB_Stalls_Percent_5_Bucket_5: 19038
Critical_ROB_Stalls_Percent_5_Bucket_6: 1024695
Non-critical_ROB_Stalls_Percent_5_Bucket_6: 60692
Critical_ROB_Stalls_Percent_6_Bucket_0: 292438
Non-critical_ROB_Stalls_Percent_6_Bucket_0: 194181
Critical_ROB_Stalls_Percent_6_Bucket_1: 411616
Non-critical_ROB_Stalls_Percent_6_Bucket_1: 190679
Critical_ROB_Stalls_Percent_6_Bucket_2: 330317
Non-critical_ROB_Stalls_Percent_6_Bucket_2: 122322
Critical_ROB_Stalls_Percent_6_Bucket_3: 228630
Non-critical_ROB_Stalls_Percent_6_Bucket_3: 50043
Critical_ROB_Stalls_Percent_6_Bucket_4: 149529
Non-critical_ROB_Stalls_Percent_6_Bucket_4: 19750
Critical_ROB_Stalls_Percent_6_Bucket_5: 135321
Non-critical_ROB_Stalls_Percent_6_Bucket_5: 17004
Critical_ROB_Stalls_Percent_6_Bucket_6: 1034200
Non-critical_ROB_Stalls_Percent_6_Bucket_6: 51187
Critical_ROB_Stalls_Percent_7_Bucket_0: 337375
Non-critical_ROB_Stalls_Percent_7_Bucket_0: 149244
Critical_ROB_Stalls_Percent_7_Bucket_1: 456361
Non-critical_ROB_Stalls_Percent_7_Bucket_1: 145934
Critical_ROB_Stalls_Percent_7_Bucket_2: 370357
Non-critical_ROB_Stalls_Percent_7_Bucket_2: 82282
Critical_ROB_Stalls_Percent_7_Bucket_3: 240932
Non-critical_ROB_Stalls_Percent_7_Bucket_3: 37741
Critical_ROB_Stalls_Percent_7_Bucket_4: 154271
Non-critical_ROB_Stalls_Percent_7_Bucket_4: 15008
Critical_ROB_Stalls_Percent_7_Bucket_5: 139466
Non-critical_ROB_Stalls_Percent_7_Bucket_5: 12859
Critical_ROB_Stalls_Percent_7_Bucket_6: 1045383
Non-critical_ROB_Stalls_Percent_7_Bucket_6: 40004
Critical_ROB_Stalls_Percent_8_Bucket_0: 386107
Non-critical_ROB_Stalls_Percent_8_Bucket_0: 100512
Critical_ROB_Stalls_Percent_8_Bucket_1: 505716
Non-critical_ROB_Stalls_Percent_8_Bucket_1: 96579
Critical_ROB_Stalls_Percent_8_Bucket_2: 399724
Non-critical_ROB_Stalls_Percent_8_Bucket_2: 52915
Critical_ROB_Stalls_Percent_8_Bucket_3: 251490
Non-critical_ROB_Stalls_Percent_8_Bucket_3: 27183
Critical_ROB_Stalls_Percent_8_Bucket_4: 158572
Non-critical_ROB_Stalls_Percent_8_Bucket_4: 10707
Critical_ROB_Stalls_Percent_8_Bucket_5: 144902
Non-critical_ROB_Stalls_Percent_8_Bucket_5: 7423
Critical_ROB_Stalls_Percent_8_Bucket_6: 1058421
Non-critical_ROB_Stalls_Percent_8_Bucket_6: 26966
Average ROB occupancy Load Stall Begin: 183.965
Average ROB occupancy Load Stall End: 192.597
Min ROB occupancy Load Stall Begin: 1
Max ROB occupancy Load Stall Begin: 352
Min ROB occupancy Load Stall End: 1
Max ROB occupancy Load Stall End: 352
Average ROB occupancy Critical Load Stall Begin: 294.429
Average ROB occupancy Critical Load Stall End: 296.383
Min ROB occupancy Critical Load Stall Begin: 3
Max ROB occupancy Critical Load Stall Begin: 352
Min ROB occupancy Critical Load Stall End: 3
Max ROB occupancy Critical Load Stall End: 352
 ROB Load Stall Begin Bucket Count 0: 688986
 ROB Load Stall End Bucket Count 0: 486619
 ROB Critical Load Stall Begin Bucket Count 0: 10166
 ROB Critical Load Stall End Bucket Count 0: 7363
 ROB Load Stall Begin Bucket Count 1: 539532
 ROB Load Stall End Bucket Count 1: 602295
 ROB Critical Load Stall Begin Bucket Count 1: 41183
 ROB Critical Load Stall End Bucket Count 1: 39230
 ROB Load Stall Begin Bucket Count 2: 401492
 ROB Load Stall End Bucket Count 2: 452639
 ROB Critical Load Stall Begin Bucket Count 2: 98969
 ROB Critical Load Stall End Bucket Count 2: 94187
 ROB Load Stall Begin Bucket Count 3: 231790
 ROB Load Stall End Bucket Count 3: 278673
 ROB Critical Load Stall Begin Bucket Count 3: 124491
 ROB Critical Load Stall End Bucket Count 3: 126380
 ROB Load Stall Begin Bucket Count 4: 156622
 ROB Load Stall End Bucket Count 4: 169279
 ROB Critical Load Stall Begin Bucket Count 4: 102013
 ROB Critical Load Stall End Bucket Count 4: 101767
 ROB Load Stall Begin Bucket Count 5: 153190
 ROB Load Stall End Bucket Count 5: 152325
 ROB Critical Load Stall Begin Bucket Count 5: 101054
 ROB Critical Load Stall End Bucket Count 5: 101072
 ROB Load Stall Begin Bucket Count 6: 1055605
 ROB Load Stall End Bucket Count 6: 1085387
 ROB Critical Load Stall Begin Bucket Count 6: 962561
 ROB Critical Load Stall End Bucket Count 6: 970438
PIST Tag Read Accesses: 2855914
PIST Read Accesses: 1427957
PIST Tag Write Accesses: 2855914
PIST Write Accesses: 1427957
Criticality detector called times: 1786780
Max global_stall_cycles_count: 3905826
Threshold Modified: 1 times, factor: -1
Sturdy critical IP cache stats: 
 Unused entries: 0
CIC Tag Read Accesses: 0
CIC Read Accesses: 0
CIC Tag Write Accesses: 0
CIC Write Accesses: 0
Wobbly critical IP cache stats: 
 Unused entries: 117
CIC Tag Read Accesses: 91591464
CIC Read Accesses: 0
CIC Tag Write Accesses: 173
CIC Write Accesses: 0
ITLB TOTAL     ACCESS:   10279229  HIT:    9809451  MISS:     469778  HIT %:    95.4298  MISS %:    4.57017   MPKI: 9.39556
ITLB LOAD TRANSLATION ACCESS:    8377506  HIT:    8367496  MISS:      10010  HIT %:    99.8805  MISS %:   0.119487   MPKI: 0.2002
ITLB TRANSLATION FROM L1D PREFETCHER ACCESS:    1901723  HIT:    1441955  MISS:     459768  HIT %:    75.8236  MISS %:    24.1764   MPKI: 9.19536
ITLBprefetch_cycle_count: 0 prefetches_per_prefetch_cycle: -nan
ITLB PREFETCH  REQUESTED:          0  ISSUED:          0  USEFUL:     414749  USELESS:      45019
ITLB USEFUL LOAD PREFETCHES:     414749 PREFETCH ISSUED TO LOWER LEVEL:          0  ACCURACY: inf
ITLB TIMELY PREFETCHES:     414749 LATE PREFETCHES: 254 DROPPED PREFETCHES: 0
ITLB PREFETCHES SAME FILL-ORIGIN LEVEL: 0 DIFFERENT FILL-ORIGIN LEVEL: 0
ITLB AVERAGE MISS LATENCY: 34874.8 cycles
ITLB RQ	ACCESS:   14689785	FORWARD:          0	MERGED:    4362287	TO_CACHE:   10327498

DTLB TOTAL     ACCESS:   10803201  HIT:   10380008  MISS:     423193  HIT %:    96.0827  MISS %:    3.91729   MPKI: 8.46386
DTLB LOAD TRANSLATION ACCESS:   10803201  HIT:   10380008  MISS:     423193  HIT %:    96.0827  MISS %:    3.91729   MPKI: 8.46386
DTLBprefetch_cycle_count: 0 prefetches_per_prefetch_cycle: -nan
DTLB PREFETCH  REQUESTED:          0  ISSUED:          0  USEFUL:          0  USELESS:          0
DTLB USEFUL LOAD PREFETCHES:          0 PREFETCH ISSUED TO LOWER LEVEL:          0  ACCURACY: -nan
DTLB TIMELY PREFETCHES:          0 LATE PREFETCHES: 0 DROPPED PREFETCHES: 0
DTLB PREFETCHES SAME FILL-ORIGIN LEVEL: 0 DIFFERENT FILL-ORIGIN LEVEL: 0
DTLB AVERAGE MISS LATENCY: 19.8205 cycles
DTLB RQ	ACCESS:   16048547	FORWARD:          0	MERGED:    5160145	TO_CACHE:   10888402

STLB TOTAL     ACCESS:    1564640  HIT:    1528742  MISS:      35898  HIT %:    97.7057  MISS %:    2.29433   MPKI: 0.71796
STLB LOAD TRANSLATION ACCESS:     432948  HIT:     397654  MISS:      35294  HIT %:     91.848  MISS %:    8.15202   MPKI: 0.70588
STLB TRANSLATION FROM L1D PREFETCHER ACCESS:    1131692  HIT:    1131088  MISS:        604  HIT %:    99.9466  MISS %:  0.0533714   MPKI: 0.01208
STLBprefetch_cycle_count: 0 prefetches_per_prefetch_cycle: -nan
STLB PREFETCH  REQUESTED:          0  ISSUED:          0  USEFUL:        416  USELESS:        171
STLB USEFUL LOAD PREFETCHES:        416 PREFETCH ISSUED TO LOWER LEVEL:          0  ACCURACY: inf
STLB TIMELY PREFETCHES:        416 LATE PREFETCHES: 0 DROPPED PREFETCHES: 0
STLB PREFETCHES SAME FILL-ORIGIN LEVEL: 0 DIFFERENT FILL-ORIGIN LEVEL: 0
STLB AVERAGE MISS LATENCY: 132.579 cycles
STLB RQ	ACCESS:    1831844	FORWARD:          0	MERGED:     267204	TO_CACHE:    1564640

STLB Hit, L1D data hit: 0
STLB Hit, L2C data hit: 0
STLB Hit, LLC data hit: 0
STLB Hit, LLC data miss: 0
STLB STLB hints to L2: 0
L1D TOTAL     ACCESS:   14377712  HIT:   12350097  MISS:    2027615  HIT %:    85.8975  MISS %:    14.1025   MPKI: 40.5523
L1D LOAD      ACCESS:    7364780  HIT:    6809319  MISS:     555461  HIT %:    92.4579  MISS %:    7.54213   MPKI: 11.1092
L1D RFO       ACCESS:    6108638  HIT:    5143374  MISS:     965264  HIT %:    84.1984  MISS %:    15.8016   MPKI: 19.3053
L1D PREFETCH  ACCESS:     904294  HIT:     397404  MISS:     506890  HIT %:    43.9463  MISS %:    56.0537   MPKI: 10.1378
L1Dprefetch_cycle_count: 690283 prefetches_per_prefetch_cycle: 2.72126
L1D PREFETCH  REQUESTED:    1901241  ISSUED:    1878442  USEFUL:     308455  USELESS:     198366
L1D USEFUL LOAD PREFETCHES:     308455 PREFETCH ISSUED TO LOWER LEVEL:     527069  ACCURACY: 58.5227
L1D TIMELY PREFETCHES:     308455 LATE PREFETCHES: 20174 DROPPED PREFETCHES: 0
L1D PREFETCHES SAME FILL-ORIGIN LEVEL: 527069 DIFFERENT FILL-ORIGIN LEVEL: 0
L1D AVERAGE MISS LATENCY: 580134 cycles
L1D RQ	ACCESS:   11030737	FORWARD:          0	MERGED:    3504300	TO_CACHE:    7406118
L1D WQ	ACCESS:    8736102	FORWARD:     121013	MERGED:      93673	TO_CACHE:    8642429
L1D PQ	ACCESS:     939568	FORWARD:          0	MERGED:          0	TO_CACHE:     938874

L1D UNIQUE REGIONS ACCESSED: 0
L1D REGIONS CONFLICTS: 0
L1D Cross Page Prefetch Requests: 0
L1D Same Page Prefetch Requests: 2095308
L1D ROI Sum of L1D PQ occupancy: 15655677
L1D PREFETCHES PUSHED FROM L2C: 0
L1I TOTAL     ACCESS:   14614948  HIT:   11499057  MISS:    3115891  HIT %:    78.6801  MISS %:    21.3199   MPKI: 62.3178
L1I LOAD      ACCESS:    9774900  HIT:    9757698  MISS:      17202  HIT %:     99.824  MISS %:   0.175981   MPKI: 0.34404
L1I PREFETCH  ACCESS:    4840048  HIT:    1741359  MISS:    3098689  HIT %:    35.9781  MISS %:    64.0219   MPKI: 61.9738
L1Iprefetch_cycle_count: 0 prefetches_per_prefetch_cycle: inf
L1I PREFETCH  REQUESTED:    5094832  ISSUED:    5086518  USEFUL:    2586142  USELESS:     512473
L1I USEFUL LOAD PREFETCHES:    2586142 PREFETCH ISSUED TO LOWER LEVEL:    3104157  ACCURACY: 83.3122
L1I TIMELY PREFETCHES:    2586142 LATE PREFETCHES: 5472 DROPPED PREFETCHES: 0
L1I PREFETCHES SAME FILL-ORIGIN LEVEL: 3104157 DIFFERENT FILL-ORIGIN LEVEL: 0
L1I AVERAGE MISS LATENCY: 116578 cycles
L1I RQ	ACCESS:   14065504	FORWARD:          0	MERGED:    4286973	TO_CACHE:    9778531
L1I PQ	ACCESS:    5086518	FORWARD:          0	MERGED:     175264	TO_CACHE:    4911254

BTB TOTAL     ACCESS:    5333738  HIT:    5067581  MISS:     266157  HIT %:    95.0099  MISS %:    4.99007   MPKI: 5.32314
BTB BRANCH_DIRECT_JUMP	ACCESS:     458651  HIT:     456812  MISS:       1839
BTB BRANCH_INDIRECT	ACCESS:      48282  HIT:      48106  MISS:        176
BTB BRANCH_CONDITIONAL	ACCESS:    3005654  HIT:    2999755  MISS:       5899
BTB BRANCH_DIRECT_CALL	ACCESS:     744228  HIT:     740447  MISS:       3781
BTB BRANCH_INDIRECT_CALL	ACCESS:     166336  HIT:     137435  MISS:      28901
BTB BRANCH_RETURN	ACCESS:     910587  HIT:     685026  MISS:     225561
BTB BRANCH_OTHER ACCESS:          0  HIT:          0  MISS:          0

L2C TOTAL     ACCESS:    6346550  HIT:    4417331  MISS:    1929219  HIT %:    69.6021  MISS %:    30.3979   MPKI: 38.5844
L2C LOAD      ACCESS:     547000  HIT:     191857  MISS:     355143  HIT %:    35.0744  MISS %:    64.9256   MPKI: 7.10286
L2C DATA LOAD MPKI: 6.99494
L2C INSTRUCTION LOAD MPKI: 0.10792
L2C RFO       ACCESS:     965248  HIT:      34601  MISS:     930647  HIT %:    3.58467  MISS %:    96.4153   MPKI: 18.6129
L2C PREFETCH  ACCESS:    3631227  HIT:    3053047  MISS:     578180  HIT %:    84.0776  MISS %:    15.9224   MPKI: 11.5636
L2C DATA PREFETCH MPKI: 8.43088
L2C INSTRUCTION PREFETCH MPKI: 3.13272
L2C WRITEBACK ACCESS:    1159673  HIT:    1120884  MISS:      38789  HIT %:    96.6552  MISS %:    3.34482   MPKI: 0.77578
L2C LOAD TRANSLATION ACCESS:      42473  HIT:      16712  MISS:      25761  HIT %:    39.3474  MISS %:    60.6526   MPKI: 0.51522
L2C TRANSLATION FROM L1D PREFETCHER ACCESS:        929  HIT:        230  MISS:        699  HIT %:    24.7578  MISS %:    75.2422   MPKI: 0.01398
L2Cprefetch_cycle_count: 0 prefetches_per_prefetch_cycle: -nan
L2C PREFETCH  REQUESTED:          0  ISSUED:          0  USEFUL:       6446  USELESS:     572534
L2C USEFUL LOAD PREFETCHES:       6446 PREFETCH ISSUED TO LOWER LEVEL:     578180  ACCURACY: 1.11488
L2C TIMELY PREFETCHES:       6446 LATE PREFETCHES: 0 DROPPED PREFETCHES: 0
L2C PREFETCHES SAME FILL-ORIGIN LEVEL: 0 DIFFERENT FILL-ORIGIN LEVEL: 0
L2C AVERAGE MISS LATENCY: 177.961 cycles
L2C RQ	ACCESS:    1555678	FORWARD:          0	MERGED:          0	TO_CACHE:    1555650
L2C WQ	ACCESS:    1159674	FORWARD:         30	MERGED:          0	TO_CACHE:    1159674
L2C PQ	ACCESS:    3631226	FORWARD:          0	MERGED:          0	TO_CACHE:    3631224

L2C Instructions Evicting Data 146078
L2C Translations Evicting Data 24013
L2C Data Evicting Data 1534575
L2C Instructions Evicting Instructions 13757
L2C Translations Evicting Instructions 2129
L2C Data Evicting Instructions 143771
L2C Instructions Evicting Translations 2197
L2C Translations Evicting Translations 318
L2C Data Evicting Translations 23592
L2C Dense regions hint from L2: 0
PSCL5 TOTAL     ACCESS:      35898  HIT:      35898  MISS:          0  HIT %:        100  MISS %:          0   MPKI: 0
PSCL5 LOAD TRANSLATION ACCESS:      35294  HIT:      35294  MISS:          0  HIT %:        100  MISS %:          0   MPKI: 0
PSCL5 TRANSLATION FROM L1D PREFETCHER ACCESS:        604  HIT:        604  MISS:          0  HIT %:        100  MISS %:          0   MPKI: 0
PSCL5prefetch_cycle_count: 0 prefetches_per_prefetch_cycle: -nan
PSCL5 PREFETCH  REQUESTED:          0  ISSUED:          0  USEFUL:          0  USELESS:          0
PSCL5 USEFUL LOAD PREFETCHES:          0 PREFETCH ISSUED TO LOWER LEVEL:          0  ACCURACY: -nan
PSCL5 TIMELY PREFETCHES:          0 LATE PREFETCHES: 0 DROPPED PREFETCHES: 0
PSCL5 PREFETCHES SAME FILL-ORIGIN LEVEL: 0 DIFFERENT FILL-ORIGIN LEVEL: 0

PSCL4 TOTAL     ACCESS:      33642  HIT:      33542  MISS:        100  HIT %:    99.7028  MISS %:   0.297247   MPKI: 0.002
PSCL4 LOAD TRANSLATION ACCESS:      33067  HIT:      32967  MISS:        100  HIT %:    99.6976  MISS %:   0.302416   MPKI: 0.002
PSCL4 TRANSLATION FROM L1D PREFETCHER ACCESS:        575  HIT:        575  MISS:          0  HIT %:        100  MISS %:          0   MPKI: 0
PSCL4prefetch_cycle_count: 0 prefetches_per_prefetch_cycle: -nan
PSCL4 PREFETCH  REQUESTED:          0  ISSUED:          0  USEFUL:          0  USELESS:          0
PSCL4 USEFUL LOAD PREFETCHES:          0 PREFETCH ISSUED TO LOWER LEVEL:          0  ACCURACY: -nan
PSCL4 TIMELY PREFETCHES:          0 LATE PREFETCHES: 0 DROPPED PREFETCHES: 0
PSCL4 PREFETCHES SAME FILL-ORIGIN LEVEL: 0 DIFFERENT FILL-ORIGIN LEVEL: 0

PSCL3 TOTAL     ACCESS:      35877  HIT:      35777  MISS:        100  HIT %:    99.7213  MISS %:    0.27873   MPKI: 0.002
PSCL3 LOAD TRANSLATION ACCESS:      35302  HIT:      35202  MISS:        100  HIT %:    99.7167  MISS %:    0.28327   MPKI: 0.002
PSCL3 TRANSLATION FROM L1D PREFETCHER ACCESS:        575  HIT:        575  MISS:          0  HIT %:        100  MISS %:          0   MPKI: 0
PSCL3prefetch_cycle_count: 0 prefetches_per_prefetch_cycle: -nan
PSCL3 PREFETCH  REQUESTED:          0  ISSUED:          0  USEFUL:          0  USELESS:          0
PSCL3 USEFUL LOAD PREFETCHES:          0 PREFETCH ISSUED TO LOWER LEVEL:          0  ACCURACY: -nan
PSCL3 TIMELY PREFETCHES:          0 LATE PREFETCHES: 0 DROPPED PREFETCHES: 0
PSCL3 PREFETCHES SAME FILL-ORIGIN LEVEL: 0 DIFFERENT FILL-ORIGIN LEVEL: 0

PSCL2 TOTAL     ACCESS:      35898  HIT:      28567  MISS:       7331  HIT %:    79.5782  MISS %:    20.4218   MPKI: 0.14662
PSCL2 LOAD TRANSLATION ACCESS:      35571  HIT:      28240  MISS:       7331  HIT %:    79.3905  MISS %:    20.6095   MPKI: 0.14662
PSCL2 TRANSLATION FROM L1D PREFETCHER ACCESS:        327  HIT:        327  MISS:          0  HIT %:        100  MISS %:          0   MPKI: 0
PSCL2prefetch_cycle_count: 0 prefetches_per_prefetch_cycle: -nan
PSCL2 PREFETCH  REQUESTED:          0  ISSUED:          0  USEFUL:          0  USELESS:          0
PSCL2 USEFUL LOAD PREFETCHES:          0 PREFETCH ISSUED TO LOWER LEVEL:          0  ACCURACY: -nan
PSCL2 TIMELY PREFETCHES:          0 LATE PREFETCHES: 0 DROPPED PREFETCHES: 0
PSCL2 PREFETCHES SAME FILL-ORIGIN LEVEL: 0 DIFFERENT FILL-ORIGIN LEVEL: 0

LLC TOTAL     ACCESS:    2972095  HIT:    1535437  MISS:    1436658  HIT %:    51.6618  MISS %:    48.3382   MPKI: 28.7332
LLC LOAD      ACCESS:     355143  HIT:     268581  MISS:      86562  HIT %:    75.6262  MISS %:    24.3738   MPKI: 1.73124
LLC RFO       ACCESS:     930647  HIT:     192147  MISS:     738500  HIT %:    20.6466  MISS %:    79.3534   MPKI: 14.77
LLC PREFETCH  ACCESS:     578180  HIT:     222206  MISS:     355974  HIT %:     38.432  MISS %:     61.568   MPKI: 7.11948
LLC WRITEBACK ACCESS:    1081665  HIT:     834591  MISS:     247074  HIT %:     77.158  MISS %:     22.842   MPKI: 4.94148
LLC LOAD TRANSLATION ACCESS:      25761  HIT:      17632  MISS:       8129  HIT %:    68.4445  MISS %:    31.5555   MPKI: 0.16258
LLC TRANSLATION FROM L1D PREFETCHER ACCESS:        699  HIT:        280  MISS:        419  HIT %:    40.0572  MISS %:    59.9428   MPKI: 0.00838
LLCprefetch_cycle_count: 0 prefetches_per_prefetch_cycle: -nan
LLC PREFETCH  REQUESTED:          0  ISSUED:          0  USEFUL:       3362  USELESS:     357527
LLC USEFUL LOAD PREFETCHES:       3362 PREFETCH ISSUED TO LOWER LEVEL:     355974  ACCURACY: 0.944451
LLC TIMELY PREFETCHES:       3362 LATE PREFETCHES: 0 DROPPED PREFETCHES: 0
LLC PREFETCHES SAME FILL-ORIGIN LEVEL: 0 DIFFERENT FILL-ORIGIN LEVEL: 0
LLC AVERAGE MISS LATENCY: 197.817 cycles
LLC RQ	ACCESS:    1312250	FORWARD:          0	MERGED:          0	TO_CACHE:    1312250
LLC WQ	ACCESS:    1081665	FORWARD:          0	MERGED:          0	TO_CACHE:    1081665
LLC PQ	ACCESS:     578180	FORWARD:          0	MERGED:          0	TO_CACHE:     578180

LLC Dense regions hint to LLC: 0

RAW hits: 1367814
Loads Generated: 12398552
Loads sent to L1D: 11030737
Stores Generated: 8736102
Stores sent to L1D: 8736102
Major fault: 0 Minor fault: 22612
Allocated PAGES: 22612
I-Shadow cache 408 bytes
Touched + WorthPF tables 6144 bytes 
MMA filter 174 bytes 
FNL filter 272 bytes 
TOTAL PREFETCHER STORAGE SIZE: 25174 bytes
CPU 0 L1I next line prefetcher final stats

total_pref_operate_instances_l1: 7406119
dynamic_config_counter_instances_1: 26235
dynamic_config_counter_instances_2: 10017
dynamic_config_counter_instances_3: 10837
dynamic_config_counter_instances_4: 5373
dynamic_config_counter_instances_5: 7353657
stream: 
stream:times selected: 3906076
stream:pref_filled: 676548
stream:pref_useful: 211516
stream:pref_late: 12496
stream:misses: 52843
stream:misses_by_poll: 0

CS: 
CS:times selected: 3185684
CS:pref_filled: 430492
CS:pref_useful: 404826
CS:pref_late: 13288
CS:misses: 22914
CS:misses_by_poll: 454

CPLX: 
CPLX:times selected: 709772
CPLX:pref_filled: 77258
CPLX:pref_useful: 3903
CPLX:pref_late: 564
CPLX:misses: 157765
CPLX:misses_by_poll: 61

NL_L1: 
NL:times selected: 4830
NL:pref_filled: 1994
NL:pref_useful: 108
NL:pref_late: 77
NL:misses: 2603
NL:misses_by_poll: 1

total selections: 7806362
total_filled: 506890
total_useful: 308455
total_late: 27012
total_polluted: 516
total_misses_after_warmup: 596800
conflicts: 2368617
Degree Incremented Times: 124908
Degree Decremented Times: 164403

L1 IP Table Write Accesses: 4869830
L1 IP Table Read Accesses: 2501213
L1 RST Write Accesses: 1945452
L1 RST Read Accesses: 3890904
L1 CSPT Write Accesses: 1945452
L1 CSPT Read Accesses: 2431838
L1 RR Filter Tag Write Accesses: 962367
L1 RR Filter Tag Read Accesses: 397801807
L1 IP Table Tag Write Accesses: 7406119
L1 IP Table Tag Read Accesses: 7406119
L1 RST Tag Write Accesses: 0
L1 RST Tag Read Accesses: 17689398
L1 RR Filter Write Accesses: 0
L1 RR Filter Read Accesses: 13660937
test: 413255

DRAM Statistics
 CHANNEL 0
 RQ ROW_BUFFER_HIT:     447658  ROW_BUFFER_MISS:     741797
 DBUS_CONGESTED:        447
 WQ ROW_BUFFER_HIT:     175227  ROW_BUFFER_MISS:     612082  FULL:       5886

 AVG_CONGESTED_CYCLE: 3
 All warmup complete: 2
Channel 0 Bank busy for read cycles: 0
Channel 0 Bank busy for write cycles: 0
Channel 0
Rank 0
0banks busy for read cycles: 26018371
0banks busy for write cycles: 42680
1banks busy for read cycles: 13921552
1banks busy for write cycles: 6219234
2banks busy for read cycles: 9366923
2banks busy for write cycles: 2804351
3banks busy for read cycles: 5607457
3banks busy for write cycles: 1635900
4banks busy for read cycles: 4182638
4banks busy for write cycles: 1253761
5banks busy for read cycles: 1712752
5banks busy for write cycles: 1111569
6banks busy for read cycles: 1304347
6banks busy for write cycles: 1113977
7banks busy for read cycles: 1826031
7banks busy for write cycles: 1926702
8banks busy for read cycles: 5140364
8banks busy for write cycles: 11531728

CPU 0 Branch Prediction Accuracy: 99.7114% MPKI: 0.47678 Average ROB Occupancy at Mispredict: 92.5644
Branch types
NOT_BRANCH: 41740729 83.4815%
BRANCH_DIRECT_JUMP: 458651 0.917302%
BRANCH_INDIRECT: 48282 0.096564%
BRANCH_CONDITIONAL: 5930847 11.8617%
BRANCH_DIRECT_CALL: 744228 1.48846%
BRANCH_INDIRECT_CALL: 166336 0.332672%
BRANCH_RETURN: 910587 1.82117%
BRANCH_OTHER: 0 0%

DRAM PAGES: 1048576
Allocated PAGES: 22612
