
*** ChampSim Multicore Out-of-Order Simulator ***

Warmup Instructions: 50000000
Simulation Instructions: 50000000
Number of CPUs: 1
LLC sets: 2048
LLC ways: 16
Off-chip DRAM Size: 4096 MB Channels: 1 Width: 64-bit Data Rate: 6400 MT/s
CPU 0 runs ../IPC-traces//server_022.champsimtrace.xz
.xz
BTB has LRU replacement policy
ITLB has LRU replacement policy
DTLB has LRU replacement policy
STLB has LRU replacement policy
CPU 0 L1I next line prefetcher
L1I has LRU replacement policy
L1D has LRU replacement policy
Bingo PHT WAYS: 16 and PHT_SIZE: 16384
Initialize SRRIP state for L2C
Initialize DRRIP state for LLC
Heartbeat CPU 0 instructions: 10000001 cycles: 3280467 heartbeat IPC: 3.04835 cumulative IPC: 3.04835 (Simulation time: 0 hr 3 min 37 sec) 
Heartbeat CPU 0 instructions: 20000000 cycles: 6567970 heartbeat IPC: 3.04182 cumulative IPC: 3.04508 (Simulation time: 0 hr 6 min 30 sec) 
Heartbeat CPU 0 instructions: 30000002 cycles: 9848502 heartbeat IPC: 3.04829 cumulative IPC: 3.04615 (Simulation time: 0 hr 9 min 24 sec) 
Heartbeat CPU 0 instructions: 40000003 cycles: 13131507 heartbeat IPC: 3.04599 cumulative IPC: 3.04611 (Simulation time: 0 hr 11 min 49 sec) 
Heartbeat CPU 0 instructions: 50000003 cycles: 16411089 heartbeat IPC: 3.04917 cumulative IPC: 3.04672 (Simulation time: 0 hr 14 min 0 sec) 

Warmup complete CPU 0 instructions: 50000003 cycles: 16411089 (Simulation time: 0 hr 14 min 0 sec) 

Heartbeat CPU 0 instructions: 60000000 cycles: 36415418 heartbeat IPC: 0.499892 cumulative IPC: 0.499892 (Simulation time: 0 hr 17 min 42 sec) 
Heartbeat CPU 0 instructions: 70000001 cycles: 55681258 heartbeat IPC: 0.519053 cumulative IPC: 0.509292 (Simulation time: 0 hr 21 min 16 sec) 
Heartbeat CPU 0 instructions: 80000000 cycles: 74281776 heartbeat IPC: 0.537619 cumulative IPC: 0.518397 (Simulation time: 0 hr 24 min 42 sec) 
Heartbeat CPU 0 instructions: 90000003 cycles: 93126906 heartbeat IPC: 0.530641 cumulative IPC: 0.521405 (Simulation time: 0 hr 28 min 23 sec) 
Heartbeat CPU 0 instructions: 100000000 cycles: 111871976 heartbeat IPC: 0.533473 cumulative IPC: 0.523775 (Simulation time: 0 hr 31 min 23 sec) 
Finished CPU 0 instructions: 50000001 cycles: 95460888 cumulative IPC: 0.523775 (Simulation time: 0 hr 31 min 23 sec) 

ChampSim completed all CPUs

Region of Interest Statistics

CPU 0 cumulative IPC: 0.523775 instructions: 50000001 cycles: 95460888

CPU 0 Average Load ROB stall cycles: 2.96778e+07
CPU 0 Fraction of times ROB stalled by Loads: 45.7773
CPU 0 Percentage of Load stall cycles in Total stall cycles: 2.72579e+08
Issued all: 52640875
Issued LT all: 47365381
rob_not_full_when_issued_lt_all: 16834270
Issued LT one: 41518486
rob_not_full_when_issued_lt_one: 12799301
FVP critical_dynamic_instances_0: 2671033
FVP unique_critical_ips_0: 2766
 Total stall cycles: 77832754
 Total load stall cycles: 212155777524994
Unique Load IPs: 6167
CPU 0 NUM of IPS identified critical: 0
CPU 0 Num of Load IPs stalling ROB: 0
Threshold modification factor: 0
Trouble in retire width: -nan
MaC = Marked as critical.
lt_50_percent_before_Mac: 0
gt_90_percent_before_Mac: 0
gt_75_percent_before_Mac: 0
gt_50_percent_before_Mac: 0
stall_proportion_bin_same_before_after: 0
stall_proportion_bin_lower_before_after: 0
stall_proportion_bin_upper_before_after: 0
average_stall_proportion_before: -nan
average_stall_proportion_after: -nan
Critical IP stalls, total frequency: 0
Non-critical IP stalls, total frequency: 0
Total Freq all stalling IPs: 0
Critical_IP_Detector_Accuracy_70: 0.000361533
Critical_IP_Detector_Accuracy_80: 0.000361533
Critical_IP_Detector_Accuracy_90: 0.000361533
Critical_IP_Detector_Coverage_70: 1
Critical_IP_Detector_Coverage_80: 1
Critical_IP_Detector_Coverage_90: 1
stat_90_percent_critical_ip_stalls_freq: 295114
stat_90_percent_non_critical_ip_stalls_freq: 18446744073709256502
AVERAGE_ROB_Occupancy_90_Percent_Critical_IP_Stalls: 313.427
AVERAGE_ROB_Occupancy_90_Percent_Non_Critical_IP_Stalls: 2.95921e-11
Critical_IP_ROB_Stalls_Bucket_0: 0
Non-critical_IP_ROB_Stalls_Bucket_0: 501793
Critical_IP_ROB_Stalls_Bucket_1: 0
Non-critical_IP_ROB_Stalls_Bucket_1: 615548
Critical_IP_ROB_Stalls_Bucket_2: 0
Non-critical_IP_ROB_Stalls_Bucket_2: 424038
Critical_IP_ROB_Stalls_Bucket_3: 0
Non-critical_IP_ROB_Stalls_Bucket_3: 263264
Critical_IP_ROB_Stalls_Bucket_4: 0
Non-critical_IP_ROB_Stalls_Bucket_4: 167986
Critical_IP_ROB_Stalls_Bucket_5: 0
Non-critical_IP_ROB_Stalls_Bucket_5: 149661
Critical_IP_ROB_Stalls_Bucket_6: 0
Non-critical_IP_ROB_Stalls_Bucket_6: 1150170
0 => IPs accounting for >50 percent of stalls, 1 => 55, 2 => 60, 3 => 65 and so on till 90.
percent50: inf num IPs:  1
percent55: inf num IPs: 1
percent60: inf num IPs: 1
percent65: inf num IPs: 1
percent70: inf num IPs: 1
percent75: inf num IPs: 1
percent80: inf num IPs: 1
percent85: inf num IPs: 1
percent90: inf num IPs: 1
Critical_ROB_Stalls_Percent_0_Bucket_0: 665
Non-critical_ROB_Stalls_Percent_0_Bucket_0: 501128
Critical_ROB_Stalls_Percent_0_Bucket_1: 3470
Non-critical_ROB_Stalls_Percent_0_Bucket_1: 612078
Critical_ROB_Stalls_Percent_0_Bucket_2: 13569
Non-critical_ROB_Stalls_Percent_0_Bucket_2: 410469
Critical_ROB_Stalls_Percent_0_Bucket_3: 20504
Non-critical_ROB_Stalls_Percent_0_Bucket_3: 242760
Critical_ROB_Stalls_Percent_0_Bucket_4: 15889
Non-critical_ROB_Stalls_Percent_0_Bucket_4: 152097
Critical_ROB_Stalls_Percent_0_Bucket_5: 15674
Non-critical_ROB_Stalls_Percent_0_Bucket_5: 133987
Critical_ROB_Stalls_Percent_0_Bucket_6: 225343
Non-critical_ROB_Stalls_Percent_0_Bucket_6: 924827
Critical_ROB_Stalls_Percent_1_Bucket_0: 665
Non-critical_ROB_Stalls_Percent_1_Bucket_0: 501128
Critical_ROB_Stalls_Percent_1_Bucket_1: 3470
Non-critical_ROB_Stalls_Percent_1_Bucket_1: 612078
Critical_ROB_Stalls_Percent_1_Bucket_2: 13569
Non-critical_ROB_Stalls_Percent_1_Bucket_2: 410469
Critical_ROB_Stalls_Percent_1_Bucket_3: 20504
Non-critical_ROB_Stalls_Percent_1_Bucket_3: 242760
Critical_ROB_Stalls_Percent_1_Bucket_4: 15889
Non-critical_ROB_Stalls_Percent_1_Bucket_4: 152097
Critical_ROB_Stalls_Percent_1_Bucket_5: 15674
Non-critical_ROB_Stalls_Percent_1_Bucket_5: 133987
Critical_ROB_Stalls_Percent_1_Bucket_6: 225343
Non-critical_ROB_Stalls_Percent_1_Bucket_6: 924827
Critical_ROB_Stalls_Percent_2_Bucket_0: 665
Non-critical_ROB_Stalls_Percent_2_Bucket_0: 501128
Critical_ROB_Stalls_Percent_2_Bucket_1: 3470
Non-critical_ROB_Stalls_Percent_2_Bucket_1: 612078
Critical_ROB_Stalls_Percent_2_Bucket_2: 13569
Non-critical_ROB_Stalls_Percent_2_Bucket_2: 410469
Critical_ROB_Stalls_Percent_2_Bucket_3: 20504
Non-critical_ROB_Stalls_Percent_2_Bucket_3: 242760
Critical_ROB_Stalls_Percent_2_Bucket_4: 15889
Non-critical_ROB_Stalls_Percent_2_Bucket_4: 152097
Critical_ROB_Stalls_Percent_2_Bucket_5: 15674
Non-critical_ROB_Stalls_Percent_2_Bucket_5: 133987
Critical_ROB_Stalls_Percent_2_Bucket_6: 225343
Non-critical_ROB_Stalls_Percent_2_Bucket_6: 924827
Critical_ROB_Stalls_Percent_3_Bucket_0: 665
Non-critical_ROB_Stalls_Percent_3_Bucket_0: 501128
Critical_ROB_Stalls_Percent_3_Bucket_1: 3470
Non-critical_ROB_Stalls_Percent_3_Bucket_1: 612078
Critical_ROB_Stalls_Percent_3_Bucket_2: 13569
Non-critical_ROB_Stalls_Percent_3_Bucket_2: 410469
Critical_ROB_Stalls_Percent_3_Bucket_3: 20504
Non-critical_ROB_Stalls_Percent_3_Bucket_3: 242760
Critical_ROB_Stalls_Percent_3_Bucket_4: 15889
Non-critical_ROB_Stalls_Percent_3_Bucket_4: 152097
Critical_ROB_Stalls_Percent_3_Bucket_5: 15674
Non-critical_ROB_Stalls_Percent_3_Bucket_5: 133987
Critical_ROB_Stalls_Percent_3_Bucket_6: 225343
Non-critical_ROB_Stalls_Percent_3_Bucket_6: 924827
Critical_ROB_Stalls_Percent_4_Bucket_0: 665
Non-critical_ROB_Stalls_Percent_4_Bucket_0: 501128
Critical_ROB_Stalls_Percent_4_Bucket_1: 3470
Non-critical_ROB_Stalls_Percent_4_Bucket_1: 612078
Critical_ROB_Stalls_Percent_4_Bucket_2: 13569
Non-critical_ROB_Stalls_Percent_4_Bucket_2: 410469
Critical_ROB_Stalls_Percent_4_Bucket_3: 20504
Non-critical_ROB_Stalls_Percent_4_Bucket_3: 242760
Critical_ROB_Stalls_Percent_4_Bucket_4: 15889
Non-critical_ROB_Stalls_Percent_4_Bucket_4: 152097
Critical_ROB_Stalls_Percent_4_Bucket_5: 15674
Non-critical_ROB_Stalls_Percent_4_Bucket_5: 133987
Critical_ROB_Stalls_Percent_4_Bucket_6: 225343
Non-critical_ROB_Stalls_Percent_4_Bucket_6: 924827
Critical_ROB_Stalls_Percent_5_Bucket_0: 665
Non-critical_ROB_Stalls_Percent_5_Bucket_0: 501128
Critical_ROB_Stalls_Percent_5_Bucket_1: 3470
Non-critical_ROB_Stalls_Percent_5_Bucket_1: 612078
Critical_ROB_Stalls_Percent_5_Bucket_2: 13569
Non-critical_ROB_Stalls_Percent_5_Bucket_2: 410469
Critical_ROB_Stalls_Percent_5_Bucket_3: 20504
Non-critical_ROB_Stalls_Percent_5_Bucket_3: 242760
Critical_ROB_Stalls_Percent_5_Bucket_4: 15889
Non-critical_ROB_Stalls_Percent_5_Bucket_4: 152097
Critical_ROB_Stalls_Percent_5_Bucket_5: 15674
Non-critical_ROB_Stalls_Percent_5_Bucket_5: 133987
Critical_ROB_Stalls_Percent_5_Bucket_6: 225343
Non-critical_ROB_Stalls_Percent_5_Bucket_6: 924827
Critical_ROB_Stalls_Percent_6_Bucket_0: 665
Non-critical_ROB_Stalls_Percent_6_Bucket_0: 501128
Critical_ROB_Stalls_Percent_6_Bucket_1: 3470
Non-critical_ROB_Stalls_Percent_6_Bucket_1: 612078
Critical_ROB_Stalls_Percent_6_Bucket_2: 13569
Non-critical_ROB_Stalls_Percent_6_Bucket_2: 410469
Critical_ROB_Stalls_Percent_6_Bucket_3: 20504
Non-critical_ROB_Stalls_Percent_6_Bucket_3: 242760
Critical_ROB_Stalls_Percent_6_Bucket_4: 15889
Non-critical_ROB_Stalls_Percent_6_Bucket_4: 152097
Critical_ROB_Stalls_Percent_6_Bucket_5: 15674
Non-critical_ROB_Stalls_Percent_6_Bucket_5: 133987
Critical_ROB_Stalls_Percent_6_Bucket_6: 225343
Non-critical_ROB_Stalls_Percent_6_Bucket_6: 924827
Critical_ROB_Stalls_Percent_7_Bucket_0: 665
Non-critical_ROB_Stalls_Percent_7_Bucket_0: 501128
Critical_ROB_Stalls_Percent_7_Bucket_1: 3470
Non-critical_ROB_Stalls_Percent_7_Bucket_1: 612078
Critical_ROB_Stalls_Percent_7_Bucket_2: 13569
Non-critical_ROB_Stalls_Percent_7_Bucket_2: 410469
Critical_ROB_Stalls_Percent_7_Bucket_3: 20504
Non-critical_ROB_Stalls_Percent_7_Bucket_3: 242760
Critical_ROB_Stalls_Percent_7_Bucket_4: 15889
Non-critical_ROB_Stalls_Percent_7_Bucket_4: 152097
Critical_ROB_Stalls_Percent_7_Bucket_5: 15674
Non-critical_ROB_Stalls_Percent_7_Bucket_5: 133987
Critical_ROB_Stalls_Percent_7_Bucket_6: 225343
Non-critical_ROB_Stalls_Percent_7_Bucket_6: 924827
Critical_ROB_Stalls_Percent_8_Bucket_0: 665
Non-critical_ROB_Stalls_Percent_8_Bucket_0: 501128
Critical_ROB_Stalls_Percent_8_Bucket_1: 3470
Non-critical_ROB_Stalls_Percent_8_Bucket_1: 612078
Critical_ROB_Stalls_Percent_8_Bucket_2: 13569
Non-critical_ROB_Stalls_Percent_8_Bucket_2: 410469
Critical_ROB_Stalls_Percent_8_Bucket_3: 20504
Non-critical_ROB_Stalls_Percent_8_Bucket_3: 242760
Critical_ROB_Stalls_Percent_8_Bucket_4: 15889
Non-critical_ROB_Stalls_Percent_8_Bucket_4: 152097
Critical_ROB_Stalls_Percent_8_Bucket_5: 15674
Non-critical_ROB_Stalls_Percent_8_Bucket_5: 133987
Critical_ROB_Stalls_Percent_8_Bucket_6: 225343
Non-critical_ROB_Stalls_Percent_8_Bucket_6: 924827
Average ROB occupancy Load Stall Begin: 186.798
Average ROB occupancy Load Stall End: 195.075
Min ROB occupancy Load Stall Begin: 1
Max ROB occupancy Load Stall Begin: 352
Min ROB occupancy Load Stall End: 1
Max ROB occupancy Load Stall End: 352
Average ROB occupancy Critical Load Stall Begin: -nan
Average ROB occupancy Critical Load Stall End: -nan
Min ROB occupancy Critical Load Stall Begin: 400
Max ROB occupancy Critical Load Stall Begin: 0
Min ROB occupancy Critical Load Stall End: 400
Max ROB occupancy Critical Load Stall End: 0
 ROB Load Stall Begin Bucket Count 0: 710754
 ROB Load Stall End Bucket Count 0: 501793
 ROB Critical Load Stall Begin Bucket Count 0: 0
 ROB Critical Load Stall End Bucket Count 0: 0
 ROB Load Stall Begin Bucket Count 1: 536282
 ROB Load Stall End Bucket Count 1: 615548
 ROB Critical Load Stall Begin Bucket Count 1: 0
 ROB Critical Load Stall End Bucket Count 1: 0
 ROB Load Stall Begin Bucket Count 2: 375597
 ROB Load Stall End Bucket Count 2: 424038
 ROB Critical Load Stall Begin Bucket Count 2: 0
 ROB Critical Load Stall End Bucket Count 2: 0
 ROB Load Stall Begin Bucket Count 3: 223294
 ROB Load Stall End Bucket Count 3: 263264
 ROB Critical Load Stall Begin Bucket Count 3: 0
 ROB Critical Load Stall End Bucket Count 3: 0
 ROB Load Stall Begin Bucket Count 4: 153805
 ROB Load Stall End Bucket Count 4: 167986
 ROB Critical Load Stall Begin Bucket Count 4: 0
 ROB Critical Load Stall End Bucket Count 4: 0
 ROB Load Stall Begin Bucket Count 5: 151402
 ROB Load Stall End Bucket Count 5: 149661
 ROB Critical Load Stall Begin Bucket Count 5: 0
 ROB Critical Load Stall End Bucket Count 5: 0
 ROB Load Stall Begin Bucket Count 6: 1121326
 ROB Load Stall End Bucket Count 6: 1150170
 ROB Critical Load Stall Begin Bucket Count 6: 0
 ROB Critical Load Stall End Bucket Count 6: 0
PIST Tag Read Accesses: 0
PIST Read Accesses: 0
PIST Tag Write Accesses: 0
PIST Write Accesses: 0
Criticality detector called times: 0
Max global_stall_cycles_count: 0
Threshold Modified: 0 times, factor: 0
ITLB TOTAL     ACCESS:   10459108  HIT:    9958326  MISS:     500782  HIT %:     95.212  MISS %:      4.788   MPKI: 10.0156
ITLB LOAD TRANSLATION ACCESS:    8502579  HIT:    8489293  MISS:      13286  HIT %:    99.8437  MISS %:   0.156258   MPKI: 0.26572
ITLB TRANSLATION FROM L1D PREFETCHER ACCESS:    1956529  HIT:    1469033  MISS:     487496  HIT %:    75.0836  MISS %:    24.9164   MPKI: 9.74992
ITLB PREFETCH  REQUESTED:          0  ISSUED:          0  USEFUL:     435502  USELESS:      51995
ITLB USEFUL LOAD PREFETCHES:     435502 PREFETCH ISSUED TO LOWER LEVEL:          0  ACCURACY: inf
ITLB TIMELY PREFETCHES:     435502 LATE PREFETCHES: 159 DROPPED PREFETCHES: 0
ITLB PREFETCHES SAME FILL-ORIGIN LEVEL: 0 DIFFERENT FILL-ORIGIN LEVEL: 0
ITLB AVERAGE MISS LATENCY: 20181.3 cycles
ITLB RQ	ACCESS:   15103934	FORWARD:          0	MERGED:    4596260	TO_CACHE:   10507674

DTLB TOTAL     ACCESS:   10886692  HIT:   10476378  MISS:     410314  HIT %:     96.231  MISS %:    3.76895   MPKI: 8.20628
DTLB LOAD TRANSLATION ACCESS:   10886692  HIT:   10476378  MISS:     410314  HIT %:     96.231  MISS %:    3.76895   MPKI: 8.20628
DTLB PREFETCH  REQUESTED:          0  ISSUED:          0  USEFUL:          0  USELESS:          0
DTLB USEFUL LOAD PREFETCHES:          0 PREFETCH ISSUED TO LOWER LEVEL:          0  ACCURACY: -nan
DTLB TIMELY PREFETCHES:          0 LATE PREFETCHES: 0 DROPPED PREFETCHES: 0
DTLB PREFETCHES SAME FILL-ORIGIN LEVEL: 0 DIFFERENT FILL-ORIGIN LEVEL: 0
DTLB AVERAGE MISS LATENCY: 17.0358 cycles
DTLB RQ	ACCESS:   16218745	FORWARD:          0	MERGED:    5248550	TO_CACHE:   10970195

STLB TOTAL     ACCESS:     911096  HIT:     891467  MISS:      19629  HIT %:    97.8456  MISS %:    2.15444   MPKI: 0.39258
STLB LOAD TRANSLATION ACCESS:     423441  HIT:     404188  MISS:      19253  HIT %:    95.4532  MISS %:     4.5468   MPKI: 0.38506
STLB TRANSLATION FROM L1D PREFETCHER ACCESS:     487655  HIT:     487279  MISS:        376  HIT %:    99.9229  MISS %:  0.0771037   MPKI: 0.00752
STLB PREFETCH  REQUESTED:          0  ISSUED:          0  USEFUL:        160  USELESS:        217
STLB USEFUL LOAD PREFETCHES:        160 PREFETCH ISSUED TO LOWER LEVEL:          0  ACCURACY: inf
STLB TIMELY PREFETCHES:        160 LATE PREFETCHES: 0 DROPPED PREFETCHES: 0
STLB PREFETCHES SAME FILL-ORIGIN LEVEL: 0 DIFFERENT FILL-ORIGIN LEVEL: 0
STLB AVERAGE MISS LATENCY: 175.097 cycles
STLB RQ	ACCESS:     911096	FORWARD:          0	MERGED:          0	TO_CACHE:     911096

STLB Hit, L1D data hit: 0
STLB Hit, L2C data hit: 0
STLB Hit, LLC data hit: 0
STLB Hit, LLC data miss: 0
STLB STLB hints to L2: 0
L1D TOTAL     ACCESS:   13858227  HIT:   12040065  MISS:    1818162  HIT %:    86.8803  MISS %:    13.1197   MPKI: 36.3632
L1D LOAD      ACCESS:    7386012  HIT:    6563743  MISS:     822269  HIT %:    88.8672  MISS %:    11.1328   MPKI: 16.4454
L1D RFO       ACCESS:    6472215  HIT:    5476322  MISS:     995893  HIT %:    84.6128  MISS %:    15.3872   MPKI: 19.9179
L1D PREFETCH  REQUESTED:          0  ISSUED:          0  USEFUL:          0  USELESS:          0
L1D USEFUL LOAD PREFETCHES:          0 PREFETCH ISSUED TO LOWER LEVEL:          0  ACCURACY: -nan
L1D TIMELY PREFETCHES:          0 LATE PREFETCHES: 0 DROPPED PREFETCHES: 0
L1D PREFETCHES SAME FILL-ORIGIN LEVEL: 0 DIFFERENT FILL-ORIGIN LEVEL: 0
L1D AVERAGE MISS LATENCY: 145.639 cycles
L1D RQ	ACCESS:   11068075	FORWARD:          0	MERGED:    3515571	TO_CACHE:    7426886
L1D WQ	ACCESS:    8887929	FORWARD:     125618	MERGED:      96070	TO_CACHE:    8791859

L1D UNIQUE REGIONS ACCESSED: 0
L1D REGIONS CONFLICTS: 0
L1D Cross Page Prefetch Requests: 0
L1D Same Page Prefetch Requests: 0
L1D ROI Sum of L1D PQ occupancy: 0
L1D PREFETCHES PUSHED FROM L2C: 0
L1I TOTAL     ACCESS:   15015154  HIT:   11794536  MISS:    3220618  HIT %:    78.5509  MISS %:    21.4491   MPKI: 64.4124
L1I LOAD      ACCESS:    9924315  HIT:    9906573  MISS:      17742  HIT %:    99.8212  MISS %:   0.178773   MPKI: 0.35484
L1I PREFETCH  ACCESS:    5090839  HIT:    1887963  MISS:    3202876  HIT %:    37.0855  MISS %:    62.9145   MPKI: 64.0575
L1I PREFETCH  REQUESTED:    5340713  ISSUED:    5334262  USEFUL:    2654472  USELESS:     548415
L1I USEFUL LOAD PREFETCHES:    2654472 PREFETCH ISSUED TO LOWER LEVEL:    3211025  ACCURACY: 82.6674
L1I TIMELY PREFETCHES:    2654472 LATE PREFETCHES: 5822 DROPPED PREFETCHES: 0
L1I PREFETCHES SAME FILL-ORIGIN LEVEL: 3211025 DIFFERENT FILL-ORIGIN LEVEL: 0
L1I AVERAGE MISS LATENCY: 119983 cycles
L1I RQ	ACCESS:   14209044	FORWARD:          0	MERGED:    4281308	TO_CACHE:    9927736
L1I PQ	ACCESS:    5334262	FORWARD:          0	MERGED:     158064	TO_CACHE:    5176198

BTB TOTAL     ACCESS:    5297027  HIT:    5037183  MISS:     259844  HIT %:    95.0945  MISS %:    4.90547   MPKI: 5.19688
BTB BRANCH_DIRECT_JUMP	ACCESS:     445734  HIT:     443706  MISS:       2028
BTB BRANCH_INDIRECT	ACCESS:      48875  HIT:      48765  MISS:        110
BTB BRANCH_CONDITIONAL	ACCESS:    2967685  HIT:    2961525  MISS:       6160
BTB BRANCH_DIRECT_CALL	ACCESS:     758262  HIT:     754131  MISS:       4131
BTB BRANCH_INDIRECT_CALL	ACCESS:     159103  HIT:     129311  MISS:      29792
BTB BRANCH_RETURN	ACCESS:     917368  HIT:     699745  MISS:     217623
BTB BRANCH_OTHER ACCESS:          0  HIT:          0  MISS:          0

L2C TOTAL     ACCESS:    6597517  HIT:    4742457  MISS:    1855060  HIT %:    71.8825  MISS %:    28.1175   MPKI: 37.1012
L2C LOAD      ACCESS:     834180  HIT:     489930  MISS:     344250  HIT %:    58.7319  MISS %:    41.2681   MPKI: 6.885
L2C DATA LOAD MPKI: 6.8021
L2C INSTRUCTION LOAD MPKI: 0.0829
L2C RFO       ACCESS:     995856  HIT:      35266  MISS:     960590  HIT %:    3.54128  MISS %:    96.4587   MPKI: 19.2118
L2C PREFETCH  ACCESS:    3573867  HIT:    3102361  MISS:     471506  HIT %:    86.8068  MISS %:    13.1932   MPKI: 9.43012
L2C DATA PREFETCH MPKI: 6.04174
L2C INSTRUCTION PREFETCH MPKI: 3.38838
L2C WRITEBACK ACCESS:    1171901  HIT:    1102944  MISS:      68957  HIT %:    94.1158  MISS %:     5.8842   MPKI: 1.37914
L2C LOAD TRANSLATION ACCESS:      21163  HIT:      11836  MISS:       9327  HIT %:    55.9278  MISS %:    44.0722   MPKI: 0.18654
L2C TRANSLATION FROM L1D PREFETCHER ACCESS:        550  HIT:        120  MISS:        430  HIT %:    21.8182  MISS %:    78.1818   MPKI: 0.0086
L2C PREFETCH  REQUESTED:     372358  ISSUED:     372358  USEFUL:     290892  USELESS:     181340
L2C USEFUL LOAD PREFETCHES:     290892 PREFETCH ISSUED TO LOWER LEVEL:     472410  ACCURACY: 61.5762
L2C TIMELY PREFETCHES:     290892 LATE PREFETCHES: 904 DROPPED PREFETCHES: 0
L2C PREFETCHES SAME FILL-ORIGIN LEVEL: 302991 DIFFERENT FILL-ORIGIN LEVEL: 0
L2C AVERAGE MISS LATENCY: 165.375 cycles
L2C RQ	ACCESS:    1851795	FORWARD:          0	MERGED:          0	TO_CACHE:    1851749
L2C WQ	ACCESS:    1171901	FORWARD:         46	MERGED:          0	TO_CACHE:    1171901
L2C PQ	ACCESS:    3581058	FORWARD:          0	MERGED:          0	TO_CACHE:    3581058

L2C Instructions Evicting Data 157558
L2C Translations Evicting Data 8850
L2C Data Evicting Data 1442855
L2C Instructions Evicting Instructions 15109
L2C Translations Evicting Instructions 865
L2C Data Evicting Instructions 151393
L2C Instructions Evicting Translations 897
L2C Translations Evicting Translations 42
L2C Data Evicting Translations 8534
L2C Dense regions hint from L2: 0
PSCL5 TOTAL     ACCESS:      19629  HIT:      19629  MISS:          0  HIT %:        100  MISS %:          0   MPKI: 0
PSCL5 LOAD TRANSLATION ACCESS:      19253  HIT:      19253  MISS:          0  HIT %:        100  MISS %:          0   MPKI: 0
PSCL5 TRANSLATION FROM L1D PREFETCHER ACCESS:        376  HIT:        376  MISS:          0  HIT %:        100  MISS %:          0   MPKI: 0
PSCL5 PREFETCH  REQUESTED:          0  ISSUED:          0  USEFUL:          0  USELESS:          0
PSCL5 USEFUL LOAD PREFETCHES:          0 PREFETCH ISSUED TO LOWER LEVEL:          0  ACCURACY: -nan
PSCL5 TIMELY PREFETCHES:          0 LATE PREFETCHES: 0 DROPPED PREFETCHES: 0
PSCL5 PREFETCHES SAME FILL-ORIGIN LEVEL: 0 DIFFERENT FILL-ORIGIN LEVEL: 0

PSCL4 TOTAL     ACCESS:      17524  HIT:      17499  MISS:         25  HIT %:    99.8573  MISS %:   0.142661   MPKI: 0.0005
PSCL4 LOAD TRANSLATION ACCESS:      17160  HIT:      17135  MISS:         25  HIT %:    99.8543  MISS %:   0.145688   MPKI: 0.0005
PSCL4 TRANSLATION FROM L1D PREFETCHER ACCESS:        364  HIT:        364  MISS:          0  HIT %:        100  MISS %:          0   MPKI: 0
PSCL4 PREFETCH  REQUESTED:          0  ISSUED:          0  USEFUL:          0  USELESS:          0
PSCL4 USEFUL LOAD PREFETCHES:          0 PREFETCH ISSUED TO LOWER LEVEL:          0  ACCURACY: -nan
PSCL4 TIMELY PREFETCHES:          0 LATE PREFETCHES: 0 DROPPED PREFETCHES: 0
PSCL4 PREFETCHES SAME FILL-ORIGIN LEVEL: 0 DIFFERENT FILL-ORIGIN LEVEL: 0

PSCL3 TOTAL     ACCESS:      19617  HIT:      19567  MISS:         50  HIT %:    99.7451  MISS %:   0.254881   MPKI: 0.001
PSCL3 LOAD TRANSLATION ACCESS:      19267  HIT:      19217  MISS:         50  HIT %:    99.7405  MISS %:   0.259511   MPKI: 0.001
PSCL3 TRANSLATION FROM L1D PREFETCHER ACCESS:        350  HIT:        350  MISS:          0  HIT %:        100  MISS %:          0   MPKI: 0
PSCL3 PREFETCH  REQUESTED:          0  ISSUED:          0  USEFUL:          0  USELESS:          0
PSCL3 USEFUL LOAD PREFETCHES:          0 PREFETCH ISSUED TO LOWER LEVEL:          0  ACCURACY: -nan
PSCL3 TIMELY PREFETCHES:          0 LATE PREFETCHES: 0 DROPPED PREFETCHES: 0
PSCL3 PREFETCHES SAME FILL-ORIGIN LEVEL: 0 DIFFERENT FILL-ORIGIN LEVEL: 0

PSCL2 TOTAL     ACCESS:      19629  HIT:      17591  MISS:       2038  HIT %:    89.6174  MISS %:    10.3826   MPKI: 0.04076
PSCL2 LOAD TRANSLATION ACCESS:      19397  HIT:      17359  MISS:       2038  HIT %:    89.4932  MISS %:    10.5068   MPKI: 0.04076
PSCL2 TRANSLATION FROM L1D PREFETCHER ACCESS:        232  HIT:        232  MISS:          0  HIT %:        100  MISS %:          0   MPKI: 0
PSCL2 PREFETCH  REQUESTED:          0  ISSUED:          0  USEFUL:          0  USELESS:          0
PSCL2 USEFUL LOAD PREFETCHES:          0 PREFETCH ISSUED TO LOWER LEVEL:          0  ACCURACY: -nan
PSCL2 TIMELY PREFETCHES:          0 LATE PREFETCHES: 0 DROPPED PREFETCHES: 0
PSCL2 PREFETCHES SAME FILL-ORIGIN LEVEL: 0 DIFFERENT FILL-ORIGIN LEVEL: 0

LLC TOTAL     ACCESS:    2885619  HIT:    1334750  MISS:    1550869  HIT %:    46.2552  MISS %:    53.7448   MPKI: 31.0174
LLC LOAD      ACCESS:     343372  HIT:     281838  MISS:      61534  HIT %:    82.0795  MISS %:    17.9205   MPKI: 1.23068
LLC RFO       ACCESS:     960559  HIT:     245603  MISS:     714956  HIT %:    25.5688  MISS %:    74.4312   MPKI: 14.2991
LLC PREFETCH  ACCESS:     472410  HIT:     190405  MISS:     282005  HIT %:     40.305  MISS %:     59.695   MPKI: 5.6401
LLC WRITEBACK ACCESS:    1099521  HIT:     614154  MISS:     485367  HIT %:    55.8565  MISS %:    44.1435   MPKI: 9.70734
LLC LOAD TRANSLATION ACCESS:       9327  HIT:       2596  MISS:       6731  HIT %:    27.8332  MISS %:    72.1668   MPKI: 0.13462
LLC TRANSLATION FROM L1D PREFETCHER ACCESS:        430  HIT:        154  MISS:        276  HIT %:     35.814  MISS %:     64.186   MPKI: 0.00552
LLC PREFETCH  REQUESTED:          0  ISSUED:          0  USEFUL:        848  USELESS:     281513
LLC USEFUL LOAD PREFETCHES:        848 PREFETCH ISSUED TO LOWER LEVEL:     282005  ACCURACY: 0.300704
LLC TIMELY PREFETCHES:        848 LATE PREFETCHES: 0 DROPPED PREFETCHES: 0
LLC PREFETCHES SAME FILL-ORIGIN LEVEL: 0 DIFFERENT FILL-ORIGIN LEVEL: 0
LLC AVERAGE MISS LATENCY: 161.75 cycles
LLC RQ	ACCESS:    1313693	FORWARD:          0	MERGED:          0	TO_CACHE:    1313688
LLC WQ	ACCESS:    1099521	FORWARD:          5	MERGED:          0	TO_CACHE:    1099521
LLC PQ	ACCESS:     472410	FORWARD:          0	MERGED:          0	TO_CACHE:     472410

LLC Dense regions hint to LLC: 0

RAW hits: 1388660
Loads Generated: 12456735
Loads sent to L1D: 11068075
Stores Generated: 8887926
Stores sent to L1D: 8887929
Major fault: 0 Minor fault: 23677
Allocated PAGES: 23677
I-Shadow cache 408 bytes
Touched + WorthPF tables 6144 bytes 
MMA filter 174 bytes 
FNL filter 272 bytes 
TOTAL PREFETCHER STORAGE SIZE: 25174 bytes
CPU 0 L1I next line prefetcher final stats
[Bingo] PHT Access: 42391
[Bingo] PHT Hit PC+Addr: 16335
[Bingo] PHT Hit PC+Offs: 17376
[Bingo] PHT Miss: 8680
[Bingo] Prefetch PC+Addr: 0
[Bingo] Prefetch PC+Offs: 0
[Bingo] Useful PC+Addr: 0
[Bingo] Useful PC+Offs: 0
[Bingo] Useless PC+Addr: 0
[Bingo] Useless PC+Offs: 0
[Bingo] L1 Prefetch per Region: 0
[Bingo] L2 Prefetch per Region: 12.0624
[Bingo] L3 Prefetch per Region: 0
[Bingo] No Prefetch per Region: 19.9376
[Bingo] Number of Voters Mean: 11.0981
[Bingo] Number of Voters SD: 9.36897
PHT read accesses: 358259
PHT write accesses: 21620
AT read accesses: 363855
AT write accesses: 363880
FT read accesses: 89792
FT write accesses: 42391
PS read accesses: 79149
PS write accesses: 33711
PHT tag read accesses: 1041072
PHT tag write accesses: 37955
AT tag read accesses: 36671615
AT tag write accesses: 385499
FT tag read accesses: 32089977
FT tag write accesses: 106797
PS tag read accesses: 7329183
PS tag write accesses: 112817

DRAM Statistics
 CHANNEL 0
 RQ ROW_BUFFER_HIT:     573485  ROW_BUFFER_MISS:     491976
 DBUS_CONGESTED:        531
 WQ ROW_BUFFER_HIT:     159308  ROW_BUFFER_MISS:     575029  FULL:       9639

 AVG_CONGESTED_CYCLE: 3
 All warmup complete: 2
Channel 0 Bank busy for read cycles: 0
Channel 0 Bank busy for write cycles: 0
Channel 0
Rank 0
0banks busy for read cycles: 37692749
0banks busy for write cycles: 63386
1banks busy for read cycles: 12613259
1banks busy for write cycles: 9000212
2banks busy for read cycles: 4285863
2banks busy for write cycles: 3465041
3banks busy for read cycles: 1177915
3banks busy for write cycles: 1731148
4banks busy for read cycles: 1690431
4banks busy for write cycles: 1238585
5banks busy for read cycles: 625909
5banks busy for write cycles: 1057519
6banks busy for read cycles: 810563
6banks busy for write cycles: 1034695
7banks busy for read cycles: 1454545
7banks busy for write cycles: 1658673
8banks busy for read cycles: 6800482
8banks busy for write cycles: 9059914

CPU 0 Branch Prediction Accuracy: 99.8317% MPKI: 0.27564 Average ROB Occupancy at Mispredict: 113.824
Branch types
NOT_BRANCH: 41810970 83.6219%
BRANCH_DIRECT_JUMP: 445734 0.891468%
BRANCH_INDIRECT: 48875 0.09775%
BRANCH_CONDITIONAL: 5859370 11.7187%
BRANCH_DIRECT_CALL: 758262 1.51652%
BRANCH_INDIRECT_CALL: 159103 0.318206%
BRANCH_RETURN: 917368 1.83474%
BRANCH_OTHER: 0 0%

DRAM PAGES: 1048576
Allocated PAGES: 23677
