
*** ChampSim Multicore Out-of-Order Simulator ***

Warmup Instructions: 50000000
Simulation Instructions: 50000000
Number of CPUs: 1
LLC sets: 2048
LLC ways: 16
Off-chip DRAM Size: 4096 MB Channels: 1 Width: 64-bit Data Rate: 6400 MT/s
CPU 0 runs ../IPC-traces//server_033.champsimtrace.xz
.xz
NUM_OF_IPS_IN_CRITICAL_IP_TRAINING: 64
NUM_OF_CRITICAL_IP_TRAINING_TABLE_WAYS: 2
NUM_OF_CRITICAL_IP_TRAINING_TABLE_SETS: 32
WOBBLY_CRITICAL_IP_CACHE_SETS: 32
WOBBLY_CRITICAL_IP_CACHE_WAYS: 4
BTB has LRU replacement policy
ITLB has LRU replacement policy
DTLB has LRU replacement policy
STLB has LRU replacement policy
CPU 0 L1I next line prefetcher
L1I has LRU replacement policy
IP Table Entries: 256
L1D has LRU replacement policy
IP_Table L2 entries: 256
Initialize SRRIP state for L2C
Initialize DRRIP state for LLC
Heartbeat CPU 0 instructions: 10000001 cycles: 2766466 heartbeat IPC: 3.61472 cumulative IPC: 3.61472 (Simulation time: 0 hr 4 min 13 sec) 
Heartbeat CPU 0 instructions: 20000002 cycles: 5528684 heartbeat IPC: 3.62028 cumulative IPC: 3.6175 (Simulation time: 0 hr 7 min 26 sec) 
Heartbeat CPU 0 instructions: 30000003 cycles: 8292464 heartbeat IPC: 3.61823 cumulative IPC: 3.61774 (Simulation time: 0 hr 10 min 22 sec) 
Heartbeat CPU 0 instructions: 40000000 cycles: 11061637 heartbeat IPC: 3.61119 cumulative IPC: 3.6161 (Simulation time: 0 hr 12 min 52 sec) 
Heartbeat CPU 0 instructions: 50000000 cycles: 13831460 heartbeat IPC: 3.61034 cumulative IPC: 3.61495 (Simulation time: 0 hr 15 min 20 sec) 

Warmup complete CPU 0 instructions: 50000004 cycles: 13831461 (Simulation time: 0 hr 15 min 20 sec) 

% increase in all ip prefetch 329.94
% increase in all ip prefetch -2.29744
Heartbeat CPU 0 instructions: 60000000 cycles: 26730439 heartbeat IPC: 0.775255 cumulative IPC: 0.775255 (Simulation time: 0 hr 17 min 45 sec) 
Heartbeat CPU 0 instructions: 70000000 cycles: 39556319 heartbeat IPC: 0.779674 cumulative IPC: 0.777458 (Simulation time: 0 hr 20 min 9 sec) 
Heartbeat CPU 0 instructions: 80000000 cycles: 53102387 heartbeat IPC: 0.738222 cumulative IPC: 0.763924 (Simulation time: 0 hr 22 min 37 sec) 
Heartbeat CPU 0 instructions: 90000003 cycles: 66097839 heartbeat IPC: 0.7695 cumulative IPC: 0.76531 (Simulation time: 0 hr 25 min 2 sec) 
Heartbeat CPU 0 instructions: 100000000 cycles: 78968544 heartbeat IPC: 0.776958 cumulative IPC: 0.767612 (Simulation time: 0 hr 27 min 48 sec) 
Finished CPU 0 instructions: 50000000 cycles: 65137096 cumulative IPC: 0.767612 (Simulation time: 0 hr 27 min 48 sec) 

ChampSim completed all CPUs

Region of Interest Statistics

CPU 0 cumulative IPC: 0.767612 instructions: 50000000 cycles: 65137096

CPU 0 Average Load ROB stall cycles: 1.68975e+07
CPU 0 Fraction of times ROB stalled by Loads: 36.4809
CPU 0 Percentage of Load stall cycles in Total stall cycles: 2.43913e+08
Issued all: 26532694
Issued LT all: 20754933
rob_not_full_when_issued_lt_all: 20221790
Issued LT one: 15662803
rob_not_full_when_issued_lt_one: 15181486
critical_ip_candidate_identification_operations: 5601100
critical_ip_candidate_identification_operation_per_cycle: 0.0859894
 Total stall cycles: 53181956
 Total load stall cycles: 129717477943998
Unique Load IPs: 8699
CPU 0 NUM of IPS identified critical: 13
CPU 0 Num of Load IPs stalling ROB: 7026
Threshold modification factor: -1
Max PIST entries: 64
Min PIST entries: 0
Avg PIST entries: 32
Trouble in retire width: 0.862052
MaC = Marked as critical.
lt_50_percent_before_Mac: 13
gt_90_percent_before_Mac: 0
gt_75_percent_before_Mac: 0
gt_50_percent_before_Mac: 0
stall_proportion_bin_same_before_after: 0
stall_proportion_bin_lower_before_after: 0
stall_proportion_bin_upper_before_after: 0
average_stall_proportion_before: 0.0562996
average_stall_proportion_after: 0.0541593
Critical IP stalls, total frequency: 17669
Non-critical IP stalls, total frequency: 2782881
Total Freq all stalling IPs: 2800550
Critical_IP_Detector_Accuracy_70: 0.307692
Critical_IP_Detector_Accuracy_80: 0.307692
Critical_IP_Detector_Accuracy_90: 0.923077
Critical_IP_Detector_Coverage_70: 0.00524934
Critical_IP_Detector_Coverage_80: 0.00409836
Critical_IP_Detector_Coverage_90: 0.00963082
stat_90_percent_critical_ip_stalls_freq: 2521205
stat_90_percent_non_critical_ip_stalls_freq: 279345
AVERAGE_ROB_Occupancy_90_Percent_Critical_IP_Stalls: 58.2352
AVERAGE_ROB_Occupancy_90_Percent_Non_Critical_IP_Stalls: 56.1886
Critical_IP_ROB_Stalls_Bucket_0: 1466
Non-critical_IP_ROB_Stalls_Bucket_0: 1532393
Critical_IP_ROB_Stalls_Bucket_1: 1990
Non-critical_IP_ROB_Stalls_Bucket_1: 844042
Critical_IP_ROB_Stalls_Bucket_2: 189
Non-critical_IP_ROB_Stalls_Bucket_2: 299153
Critical_IP_ROB_Stalls_Bucket_3: 134
Non-critical_IP_ROB_Stalls_Bucket_3: 84485
Critical_IP_ROB_Stalls_Bucket_4: 136
Non-critical_IP_ROB_Stalls_Bucket_4: 14758
Critical_IP_ROB_Stalls_Bucket_5: 355
Non-critical_IP_ROB_Stalls_Bucket_5: 3161
Critical_IP_ROB_Stalls_Bucket_6: 13399
Non-critical_IP_ROB_Stalls_Bucket_6: 4889
0 => IPs accounting for >50 percent of stalls, 1 => 55, 2 => 60, 3 => 65 and so on till 90.
percent50: 50.0385 num IPs:  359
percent55: 55.024 num IPs: 459
percent60: 60.0418 num IPs: 560
percent65: 65.0492 num IPs: 661
percent70: 70.0017 num IPs: 762
percent75: 75.0371 num IPs: 867
percent80: 80.0389 num IPs: 976
percent85: 85.0343 num IPs: 1095
percent90: 90.0253 num IPs: 1246
Critical_ROB_Stalls_Percent_0_Bucket_0: 803194
Non-critical_ROB_Stalls_Percent_0_Bucket_0: 730665
Critical_ROB_Stalls_Percent_0_Bucket_1: 405763
Non-critical_ROB_Stalls_Percent_0_Bucket_1: 440269
Critical_ROB_Stalls_Percent_0_Bucket_2: 149075
Non-critical_ROB_Stalls_Percent_0_Bucket_2: 150267
Critical_ROB_Stalls_Percent_0_Bucket_3: 31432
Non-critical_ROB_Stalls_Percent_0_Bucket_3: 53187
Critical_ROB_Stalls_Percent_0_Bucket_4: 6585
Non-critical_ROB_Stalls_Percent_0_Bucket_4: 8309
Critical_ROB_Stalls_Percent_0_Bucket_5: 1376
Non-critical_ROB_Stalls_Percent_0_Bucket_5: 2140
Critical_ROB_Stalls_Percent_0_Bucket_6: 3928
Non-critical_ROB_Stalls_Percent_0_Bucket_6: 14360
Critical_ROB_Stalls_Percent_1_Bucket_0: 855618
Non-critical_ROB_Stalls_Percent_1_Bucket_0: 678241
Critical_ROB_Stalls_Percent_1_Bucket_1: 465355
Non-critical_ROB_Stalls_Percent_1_Bucket_1: 380677
Critical_ROB_Stalls_Percent_1_Bucket_2: 166727
Non-critical_ROB_Stalls_Percent_1_Bucket_2: 132615
Critical_ROB_Stalls_Percent_1_Bucket_3: 39254
Non-critical_ROB_Stalls_Percent_1_Bucket_3: 45365
Critical_ROB_Stalls_Percent_1_Bucket_4: 7064
Non-critical_ROB_Stalls_Percent_1_Bucket_4: 7830
Critical_ROB_Stalls_Percent_1_Bucket_5: 1543
Non-critical_ROB_Stalls_Percent_1_Bucket_5: 1973
Critical_ROB_Stalls_Percent_1_Bucket_6: 5413
Non-critical_ROB_Stalls_Percent_1_Bucket_6: 12875
Critical_ROB_Stalls_Percent_2_Bucket_0: 906990
Non-critical_ROB_Stalls_Percent_2_Bucket_0: 626869
Critical_ROB_Stalls_Percent_2_Bucket_1: 513873
Non-critical_ROB_Stalls_Percent_2_Bucket_1: 332159
Critical_ROB_Stalls_Percent_2_Bucket_2: 195837
Non-critical_ROB_Stalls_Percent_2_Bucket_2: 103505
Critical_ROB_Stalls_Percent_2_Bucket_3: 49451
Non-critical_ROB_Stalls_Percent_2_Bucket_3: 35168
Critical_ROB_Stalls_Percent_2_Bucket_4: 8395
Non-critical_ROB_Stalls_Percent_2_Bucket_4: 6499
Critical_ROB_Stalls_Percent_2_Bucket_5: 1543
Non-critical_ROB_Stalls_Percent_2_Bucket_5: 1973
Critical_ROB_Stalls_Percent_2_Bucket_6: 5413
Non-critical_ROB_Stalls_Percent_2_Bucket_6: 12875
Critical_ROB_Stalls_Percent_3_Bucket_0: 959741
Non-critical_ROB_Stalls_Percent_3_Bucket_0: 574118
Critical_ROB_Stalls_Percent_3_Bucket_1: 564622
Non-critical_ROB_Stalls_Percent_3_Bucket_1: 281410
Critical_ROB_Stalls_Percent_3_Bucket_2: 219356
Non-critical_ROB_Stalls_Percent_3_Bucket_2: 79986
Critical_ROB_Stalls_Percent_3_Bucket_3: 60832
Non-critical_ROB_Stalls_Percent_3_Bucket_3: 23787
Critical_ROB_Stalls_Percent_3_Bucket_4: 9954
Non-critical_ROB_Stalls_Percent_3_Bucket_4: 4940
Critical_ROB_Stalls_Percent_3_Bucket_5: 1817
Non-critical_ROB_Stalls_Percent_3_Bucket_5: 1699
Critical_ROB_Stalls_Percent_3_Bucket_6: 5416
Non-critical_ROB_Stalls_Percent_3_Bucket_6: 12872
Critical_ROB_Stalls_Percent_4_Bucket_0: 1028357
Non-critical_ROB_Stalls_Percent_4_Bucket_0: 505502
Critical_ROB_Stalls_Percent_4_Bucket_1: 614857
Non-critical_ROB_Stalls_Percent_4_Bucket_1: 231175
Critical_ROB_Stalls_Percent_4_Bucket_2: 233841
Non-critical_ROB_Stalls_Percent_4_Bucket_2: 65501
Critical_ROB_Stalls_Percent_4_Bucket_3: 65352
Non-critical_ROB_Stalls_Percent_4_Bucket_3: 19267
Critical_ROB_Stalls_Percent_4_Bucket_4: 10656
Non-critical_ROB_Stalls_Percent_4_Bucket_4: 4238
Critical_ROB_Stalls_Percent_4_Bucket_5: 1821
Non-critical_ROB_Stalls_Percent_4_Bucket_5: 1695
Critical_ROB_Stalls_Percent_4_Bucket_6: 5550
Non-critical_ROB_Stalls_Percent_4_Bucket_6: 12738
Critical_ROB_Stalls_Percent_5_Bucket_0: 1103280
Non-critical_ROB_Stalls_Percent_5_Bucket_0: 430579
Critical_ROB_Stalls_Percent_5_Bucket_1: 659997
Non-critical_ROB_Stalls_Percent_5_Bucket_1: 186035
Critical_ROB_Stalls_Percent_5_Bucket_2: 248645
Non-critical_ROB_Stalls_Percent_5_Bucket_2: 50697
Critical_ROB_Stalls_Percent_5_Bucket_3: 70425
Non-critical_ROB_Stalls_Percent_5_Bucket_3: 14194
Critical_ROB_Stalls_Percent_5_Bucket_4: 11496
Non-critical_ROB_Stalls_Percent_5_Bucket_4: 3398
Critical_ROB_Stalls_Percent_5_Bucket_5: 2046
Non-critical_ROB_Stalls_Percent_5_Bucket_5: 1470
Critical_ROB_Stalls_Percent_5_Bucket_6: 5564
Non-critical_ROB_Stalls_Percent_5_Bucket_6: 12724
Critical_ROB_Stalls_Percent_6_Bucket_0: 1196592
Non-critical_ROB_Stalls_Percent_6_Bucket_0: 337267
Critical_ROB_Stalls_Percent_6_Bucket_1: 694529
Non-critical_ROB_Stalls_Percent_6_Bucket_1: 151503
Critical_ROB_Stalls_Percent_6_Bucket_2: 258164
Non-critical_ROB_Stalls_Percent_6_Bucket_2: 41178
Critical_ROB_Stalls_Percent_6_Bucket_3: 72357
Non-critical_ROB_Stalls_Percent_6_Bucket_3: 12262
Critical_ROB_Stalls_Percent_6_Bucket_4: 12231
Non-critical_ROB_Stalls_Percent_6_Bucket_4: 2663
Critical_ROB_Stalls_Percent_6_Bucket_5: 2065
Non-critical_ROB_Stalls_Percent_6_Bucket_5: 1451
Critical_ROB_Stalls_Percent_6_Bucket_6: 5594
Non-critical_ROB_Stalls_Percent_6_Bucket_6: 12694
Critical_ROB_Stalls_Percent_7_Bucket_0: 1288679
Non-critical_ROB_Stalls_Percent_7_Bucket_0: 245180
Critical_ROB_Stalls_Percent_7_Bucket_1: 725844
Non-critical_ROB_Stalls_Percent_7_Bucket_1: 120188
Critical_ROB_Stalls_Percent_7_Bucket_2: 264933
Non-critical_ROB_Stalls_Percent_7_Bucket_2: 34409
Critical_ROB_Stalls_Percent_7_Bucket_3: 74741
Non-critical_ROB_Stalls_Percent_7_Bucket_3: 9878
Critical_ROB_Stalls_Percent_7_Bucket_4: 12731
Non-critical_ROB_Stalls_Percent_7_Bucket_4: 2163
Critical_ROB_Stalls_Percent_7_Bucket_5: 2257
Non-critical_ROB_Stalls_Percent_7_Bucket_5: 1259
Critical_ROB_Stalls_Percent_7_Bucket_6: 12246
Non-critical_ROB_Stalls_Percent_7_Bucket_6: 6042
Critical_ROB_Stalls_Percent_8_Bucket_0: 1375630
Non-critical_ROB_Stalls_Percent_8_Bucket_0: 158229
Critical_ROB_Stalls_Percent_8_Bucket_1: 760295
Non-critical_ROB_Stalls_Percent_8_Bucket_1: 85737
Critical_ROB_Stalls_Percent_8_Bucket_2: 276346
Non-critical_ROB_Stalls_Percent_8_Bucket_2: 22996
Critical_ROB_Stalls_Percent_8_Bucket_3: 77309
Non-critical_ROB_Stalls_Percent_8_Bucket_3: 7310
Critical_ROB_Stalls_Percent_8_Bucket_4: 13283
Non-critical_ROB_Stalls_Percent_8_Bucket_4: 1611
Critical_ROB_Stalls_Percent_8_Bucket_5: 2568
Non-critical_ROB_Stalls_Percent_8_Bucket_5: 948
Critical_ROB_Stalls_Percent_8_Bucket_6: 15774
Non-critical_ROB_Stalls_Percent_8_Bucket_6: 2514
Average ROB occupancy Load Stall Begin: 47.8022
Average ROB occupancy Load Stall End: 58.031
Min ROB occupancy Load Stall Begin: 1
Max ROB occupancy Load Stall Begin: 352
Min ROB occupancy Load Stall End: 1
Max ROB occupancy Load Stall End: 352
Average ROB occupancy Critical Load Stall Begin: 297.833
Average ROB occupancy Critical Load Stall End: 306.51
Min ROB occupancy Critical Load Stall Begin: 7
Max ROB occupancy Critical Load Stall Begin: 352
Min ROB occupancy Critical Load Stall End: 7
Max ROB occupancy Critical Load Stall End: 352
 ROB Load Stall Begin Bucket Count 0: 1845190
 ROB Load Stall End Bucket Count 0: 1533859
 ROB Critical Load Stall Begin Bucket Count 0: 1345
 ROB Critical Load Stall End Bucket Count 0: 748
 ROB Load Stall Begin Bucket Count 1: 658720
 ROB Load Stall End Bucket Count 1: 846032
 ROB Critical Load Stall Begin Bucket Count 1: 547
 ROB Critical Load Stall End Bucket Count 1: 1090
 ROB Load Stall Begin Bucket Count 2: 209926
 ROB Load Stall End Bucket Count 2: 299342
 ROB Critical Load Stall Begin Bucket Count 2: 178
 ROB Critical Load Stall End Bucket Count 2: 168
 ROB Load Stall Begin Bucket Count 3: 56815
 ROB Load Stall End Bucket Count 3: 84619
 ROB Critical Load Stall Begin Bucket Count 3: 98
 ROB Critical Load Stall End Bucket Count 3: 105
 ROB Load Stall Begin Bucket Count 4: 10067
 ROB Load Stall End Bucket Count 4: 14894
 ROB Critical Load Stall Begin Bucket Count 4: 111
 ROB Critical Load Stall End Bucket Count 4: 117
 ROB Load Stall Begin Bucket Count 5: 3374
 ROB Load Stall End Bucket Count 5: 3516
 ROB Critical Load Stall Begin Bucket Count 5: 1317
 ROB Critical Load Stall End Bucket Count 5: 329
 ROB Load Stall Begin Bucket Count 6: 16458
 ROB Load Stall End Bucket Count 6: 18288
 ROB Critical Load Stall Begin Bucket Count 6: 11583
 ROB Critical Load Stall End Bucket Count 6: 12622
PIST Tag Read Accesses: 3085252
PIST Read Accesses: 1542626
PIST Tag Write Accesses: 3085252
PIST Write Accesses: 1542626
Criticality detector called times: 2785371
Max global_stall_cycles_count: 3550805
Threshold Modified: 1 times, factor: -1
Sturdy critical IP cache stats: 
 Unused entries: 0
CIC Tag Read Accesses: 0
CIC Read Accesses: 0
CIC Tag Write Accesses: 0
CIC Write Accesses: 0
Wobbly critical IP cache stats: 
 Unused entries: 115
CIC Tag Read Accesses: 76619955
CIC Read Accesses: 0
CIC Tag Write Accesses: 44
CIC Write Accesses: 0
ITLB TOTAL     ACCESS:   10575728  HIT:    9931549  MISS:     644179  HIT %:    93.9089  MISS %:    6.09111   MPKI: 12.8836
ITLB LOAD TRANSLATION ACCESS:    8280480  HIT:    8256336  MISS:      24144  HIT %:    99.7084  MISS %:   0.291577   MPKI: 0.48288
ITLB TRANSLATION FROM L1D PREFETCHER ACCESS:    2295248  HIT:    1675213  MISS:     620035  HIT %:    72.9861  MISS %:    27.0139   MPKI: 12.4007
ITLBprefetch_cycle_count: 0 prefetches_per_prefetch_cycle: -nan
ITLB PREFETCH  REQUESTED:          0  ISSUED:          0  USEFUL:     535966  USELESS:      84073
ITLB USEFUL LOAD PREFETCHES:     535966 PREFETCH ISSUED TO LOWER LEVEL:          0  ACCURACY: inf
ITLB TIMELY PREFETCHES:     535966 LATE PREFETCHES: 33 DROPPED PREFETCHES: 0
ITLB PREFETCHES SAME FILL-ORIGIN LEVEL: 0 DIFFERENT FILL-ORIGIN LEVEL: 0
ITLB AVERAGE MISS LATENCY: 2306.63 cycles
ITLB RQ	ACCESS:   16079457	FORWARD:          0	MERGED:    5465250	TO_CACHE:   10614207

DTLB TOTAL     ACCESS:    9480458  HIT:    9035148  MISS:     445310  HIT %:    95.3029  MISS %:    4.69714   MPKI: 8.9062
DTLB LOAD TRANSLATION ACCESS:    9480458  HIT:    9035148  MISS:     445310  HIT %:    95.3029  MISS %:    4.69714   MPKI: 8.9062
DTLBprefetch_cycle_count: 0 prefetches_per_prefetch_cycle: -nan
DTLB PREFETCH  REQUESTED:          0  ISSUED:          0  USEFUL:          0  USELESS:          0
DTLB USEFUL LOAD PREFETCHES:          0 PREFETCH ISSUED TO LOWER LEVEL:          0  ACCURACY: -nan
DTLB TIMELY PREFETCHES:          0 LATE PREFETCHES: 0 DROPPED PREFETCHES: 0
DTLB PREFETCHES SAME FILL-ORIGIN LEVEL: 0 DIFFERENT FILL-ORIGIN LEVEL: 0
DTLB AVERAGE MISS LATENCY: 9.49644 cycles
DTLB RQ	ACCESS:   13392316	FORWARD:          0	MERGED:    3890975	TO_CACHE:    9501341

STLB TOTAL     ACCESS:    1211385  HIT:    1207071  MISS:       4314  HIT %:    99.6439  MISS %:   0.356121   MPKI: 0.08628
STLB LOAD TRANSLATION ACCESS:     469421  HIT:     465199  MISS:       4222  HIT %:    99.1006  MISS %:   0.899406   MPKI: 0.08444
STLB TRANSLATION FROM L1D PREFETCHER ACCESS:     741964  HIT:     741872  MISS:         92  HIT %:    99.9876  MISS %:  0.0123995   MPKI: 0.00184
STLBprefetch_cycle_count: 0 prefetches_per_prefetch_cycle: -nan
STLB PREFETCH  REQUESTED:          0  ISSUED:          0  USEFUL:         13  USELESS:         75
STLB USEFUL LOAD PREFETCHES:         13 PREFETCH ISSUED TO LOWER LEVEL:          0  ACCURACY: inf
STLB TIMELY PREFETCHES:         13 LATE PREFETCHES: 0 DROPPED PREFETCHES: 0
STLB PREFETCHES SAME FILL-ORIGIN LEVEL: 0 DIFFERENT FILL-ORIGIN LEVEL: 0
STLB AVERAGE MISS LATENCY: 51.589 cycles
STLB RQ	ACCESS:    1214919	FORWARD:          0	MERGED:       3534	TO_CACHE:    1211385

STLB Hit, L1D data hit: 0
STLB Hit, L2C data hit: 0
STLB Hit, LLC data hit: 0
STLB Hit, LLC data miss: 0
STLB STLB hints to L2: 0
L1D TOTAL     ACCESS:   13370393  HIT:   12644794  MISS:     725599  HIT %:    94.5731  MISS %:    5.42691   MPKI: 14.512
L1D LOAD      ACCESS:    6987917  HIT:    6422249  MISS:     565668  HIT %:    91.9051  MISS %:    8.09494   MPKI: 11.3134
L1D RFO       ACCESS:    6261840  HIT:    6157348  MISS:     104492  HIT %:    98.3313  MISS %:    1.66871   MPKI: 2.08984
L1D PREFETCH  ACCESS:     120636  HIT:      65197  MISS:      55439  HIT %:    54.0444  MISS %:    45.9556   MPKI: 1.10878
L1Dprefetch_cycle_count: 125433 prefetches_per_prefetch_cycle: 2.00042
L1D PREFETCH  REQUESTED:     250919  ISSUED:     250919  USEFUL:      10376  USELESS:      45130
L1D USEFUL LOAD PREFETCHES:      10376 PREFETCH ISSUED TO LOWER LEVEL:      56375  ACCURACY: 18.4053
L1D TIMELY PREFETCHES:      10376 LATE PREFETCHES: 839 DROPPED PREFETCHES: 0
L1D PREFETCHES SAME FILL-ORIGIN LEVEL: 56375 DIFFERENT FILL-ORIGIN LEVEL: 0
L1D AVERAGE MISS LATENCY: 59398.1 cycles
L1D RQ	ACCESS:   10516637	FORWARD:          0	MERGED:    3348816	TO_CACHE:    7013935
L1D WQ	ACCESS:    6510215	FORWARD:     153945	MERGED:     131834	TO_CACHE:    6378381
L1D PQ	ACCESS:     125489	FORWARD:          0	MERGED:          0	TO_CACHE:     125430

L1D UNIQUE REGIONS ACCESSED: 0
L1D REGIONS CONFLICTS: 0
L1D Cross Page Prefetch Requests: 0
L1D Same Page Prefetch Requests: 432233
L1D ROI Sum of L1D PQ occupancy: 1627197
L1D PREFETCHES PUSHED FROM L2C: 0
L1I TOTAL     ACCESS:   16004959  HIT:   11537692  MISS:    4467267  HIT %:    72.0882  MISS %:    27.9118   MPKI: 89.3453
L1I LOAD      ACCESS:    9777624  HIT:    9745217  MISS:      32407  HIT %:    99.6686  MISS %:    0.33144   MPKI: 0.64814
L1I PREFETCH  ACCESS:    6227335  HIT:    1792475  MISS:    4434860  HIT %:     28.784  MISS %:     71.216   MPKI: 88.6972
L1Iprefetch_cycle_count: 0 prefetches_per_prefetch_cycle: inf
L1I PREFETCH  REQUESTED:    6463486  ISSUED:    6435015  USEFUL:    3396003  USELESS:    1038863
L1I USEFUL LOAD PREFETCHES:    3396003 PREFETCH ISSUED TO LOWER LEVEL:    4447676  ACCURACY: 76.3546
L1I TIMELY PREFETCHES:    3396003 LATE PREFETCHES: 12810 DROPPED PREFETCHES: 0
L1I PREFETCHES SAME FILL-ORIGIN LEVEL: 4447676 DIFFERENT FILL-ORIGIN LEVEL: 0
L1I AVERAGE MISS LATENCY: 131792 cycles
L1I RQ	ACCESS:   14204668	FORWARD:          0	MERGED:    4423173	TO_CACHE:    9781495
L1I PQ	ACCESS:    6435015	FORWARD:          0	MERGED:     137053	TO_CACHE:    6297962

BTB TOTAL     ACCESS:    6392210  HIT:    5397837  MISS:     994373  HIT %:     84.444  MISS %:     15.556   MPKI: 19.8875
BTB BRANCH_DIRECT_JUMP	ACCESS:     774599  HIT:     695785  MISS:      78814
BTB BRANCH_INDIRECT	ACCESS:     108807  HIT:      74004  MISS:      34803
BTB BRANCH_CONDITIONAL	ACCESS:    2988960  HIT:    2775647  MISS:     213313
BTB BRANCH_DIRECT_CALL	ACCESS:    1048809  HIT:     930092  MISS:     118717
BTB BRANCH_INDIRECT_CALL	ACCESS:     211109  HIT:     142418  MISS:      68691
BTB BRANCH_RETURN	ACCESS:    1259926  HIT:     779891  MISS:     480035
BTB BRANCH_OTHER ACCESS:          0  HIT:          0  MISS:          0

L2C TOTAL     ACCESS:    7553636  HIT:    7191249  MISS:     362387  HIT %:    95.2025  MISS %:    4.79752   MPKI: 7.24774
L2C LOAD      ACCESS:     584393  HIT:     458990  MISS:     125403  HIT %:    78.5413  MISS %:    21.4587   MPKI: 2.50806
L2C DATA LOAD MPKI: 2.48454
L2C INSTRUCTION LOAD MPKI: 0.02352
L2C RFO       ACCESS:     104385  HIT:      83723  MISS:      20662  HIT %:     80.206  MISS %:     19.794   MPKI: 0.41324
L2C PREFETCH  ACCESS:    6603647  HIT:    6399162  MISS:     204485  HIT %:    96.9035  MISS %:    3.09655   MPKI: 4.0897
L2C DATA PREFETCH MPKI: 2.6453
L2C INSTRUCTION PREFETCH MPKI: 1.4444
L2C WRITEBACK ACCESS:     256403  HIT:     247384  MISS:       9019  HIT %:    96.4825  MISS %:    3.51751   MPKI: 0.18038
L2C LOAD TRANSLATION ACCESS:       4671  HIT:       1976  MISS:       2695  HIT %:    42.3036  MISS %:    57.6964   MPKI: 0.0539
L2C TRANSLATION FROM L1D PREFETCHER ACCESS:        137  HIT:         14  MISS:        123  HIT %:     10.219  MISS %:     89.781   MPKI: 0.00246
L2Cprefetch_cycle_count: 4812274 prefetches_per_prefetch_cycle: 1.0009
L2C PREFETCH  REQUESTED:    4816594  ISSUED:    4816591  USEFUL:      47892  USELESS:     156902
L2C USEFUL LOAD PREFETCHES:      47892 PREFETCH ISSUED TO LOWER LEVEL:     206359  ACCURACY: 23.2081
L2C TIMELY PREFETCHES:      47892 LATE PREFETCHES: 1874 DROPPED PREFETCHES: 0
L2C PREFETCHES SAME FILL-ORIGIN LEVEL: 123413 DIFFERENT FILL-ORIGIN LEVEL: 0
L2C AVERAGE MISS LATENCY: 43.7433 cycles
L2C RQ	ACCESS:     693629	FORWARD:          0	MERGED:          0	TO_CACHE:     693586
L2C WQ	ACCESS:     256403	FORWARD:         44	MERGED:          0	TO_CACHE:     256403
L2C PQ	ACCESS:    9320642	FORWARD:          0	MERGED:    2706702	TO_CACHE:    6613939

L2C Instructions Evicting Data 36224
L2C Translations Evicting Data 2577
L2C Data Evicting Data 240826
L2C Instructions Evicting Instructions 37004
L2C Translations Evicting Instructions 199
L2C Data Evicting Instructions 33779
L2C Instructions Evicting Translations 168
L2C Translations Evicting Translations 42
L2C Data Evicting Translations 2549
L2C Dense regions hint from L2: 0
PSCL5 TOTAL     ACCESS:       4314  HIT:       4314  MISS:          0  HIT %:        100  MISS %:          0   MPKI: 0
PSCL5 LOAD TRANSLATION ACCESS:       4222  HIT:       4222  MISS:          0  HIT %:        100  MISS %:          0   MPKI: 0
PSCL5 TRANSLATION FROM L1D PREFETCHER ACCESS:         92  HIT:         92  MISS:          0  HIT %:        100  MISS %:          0   MPKI: 0
PSCL5prefetch_cycle_count: 0 prefetches_per_prefetch_cycle: -nan
PSCL5 PREFETCH  REQUESTED:          0  ISSUED:          0  USEFUL:          0  USELESS:          0
PSCL5 USEFUL LOAD PREFETCHES:          0 PREFETCH ISSUED TO LOWER LEVEL:          0  ACCURACY: -nan
PSCL5 TIMELY PREFETCHES:          0 LATE PREFETCHES: 0 DROPPED PREFETCHES: 0
PSCL5 PREFETCHES SAME FILL-ORIGIN LEVEL: 0 DIFFERENT FILL-ORIGIN LEVEL: 0

PSCL4 TOTAL     ACCESS:       4294  HIT:       4289  MISS:          5  HIT %:    99.8836  MISS %:   0.116442   MPKI: 0.0001
PSCL4 LOAD TRANSLATION ACCESS:       4202  HIT:       4197  MISS:          5  HIT %:     99.881  MISS %:   0.118991   MPKI: 0.0001
PSCL4 TRANSLATION FROM L1D PREFETCHER ACCESS:         92  HIT:         92  MISS:          0  HIT %:        100  MISS %:          0   MPKI: 0
PSCL4prefetch_cycle_count: 0 prefetches_per_prefetch_cycle: -nan
PSCL4 PREFETCH  REQUESTED:          0  ISSUED:          0  USEFUL:          0  USELESS:          0
PSCL4 USEFUL LOAD PREFETCHES:          0 PREFETCH ISSUED TO LOWER LEVEL:          0  ACCURACY: -nan
PSCL4 TIMELY PREFETCHES:          0 LATE PREFETCHES: 0 DROPPED PREFETCHES: 0
PSCL4 PREFETCHES SAME FILL-ORIGIN LEVEL: 0 DIFFERENT FILL-ORIGIN LEVEL: 0

PSCL3 TOTAL     ACCESS:       4302  HIT:       4297  MISS:          5  HIT %:    99.8838  MISS %:   0.116225   MPKI: 0.0001
PSCL3 LOAD TRANSLATION ACCESS:       4210  HIT:       4205  MISS:          5  HIT %:    99.8812  MISS %:   0.118765   MPKI: 0.0001
PSCL3 TRANSLATION FROM L1D PREFETCHER ACCESS:         92  HIT:         92  MISS:          0  HIT %:        100  MISS %:          0   MPKI: 0
PSCL3prefetch_cycle_count: 0 prefetches_per_prefetch_cycle: -nan
PSCL3 PREFETCH  REQUESTED:          0  ISSUED:          0  USEFUL:          0  USELESS:          0
PSCL3 USEFUL LOAD PREFETCHES:          0 PREFETCH ISSUED TO LOWER LEVEL:          0  ACCURACY: -nan
PSCL3 TIMELY PREFETCHES:          0 LATE PREFETCHES: 0 DROPPED PREFETCHES: 0
PSCL3 PREFETCHES SAME FILL-ORIGIN LEVEL: 0 DIFFERENT FILL-ORIGIN LEVEL: 0

PSCL2 TOTAL     ACCESS:       4314  HIT:       3830  MISS:        484  HIT %:    88.7807  MISS %:    11.2193   MPKI: 0.00968
PSCL2 LOAD TRANSLATION ACCESS:       4267  HIT:       3783  MISS:        484  HIT %:    88.6571  MISS %:    11.3429   MPKI: 0.00968
PSCL2 TRANSLATION FROM L1D PREFETCHER ACCESS:         47  HIT:         47  MISS:          0  HIT %:        100  MISS %:          0   MPKI: 0
PSCL2prefetch_cycle_count: 0 prefetches_per_prefetch_cycle: -nan
PSCL2 PREFETCH  REQUESTED:          0  ISSUED:          0  USEFUL:          0  USELESS:          0
PSCL2 USEFUL LOAD PREFETCHES:          0 PREFETCH ISSUED TO LOWER LEVEL:          0  ACCURACY: -nan
PSCL2 TIMELY PREFETCHES:          0 LATE PREFETCHES: 0 DROPPED PREFETCHES: 0
PSCL2 PREFETCHES SAME FILL-ORIGIN LEVEL: 0 DIFFERENT FILL-ORIGIN LEVEL: 0

LLC TOTAL     ACCESS:     455810  HIT:     422859  MISS:      32951  HIT %:    92.7709  MISS %:    7.22911   MPKI: 0.65902
LLC LOAD      ACCESS:     123724  HIT:     110529  MISS:      13195  HIT %:    89.3351  MISS %:    10.6649   MPKI: 0.2639
LLC RFO       ACCESS:      20466  HIT:      15820  MISS:       4646  HIT %:    77.2989  MISS %:    22.7011   MPKI: 0.09292
LLC PREFETCH  ACCESS:     206359  HIT:     191871  MISS:      14488  HIT %:    92.9792  MISS %:    7.02077   MPKI: 0.28976
LLC WRITEBACK ACCESS:     102443  HIT:     102014  MISS:        429  HIT %:    99.5812  MISS %:   0.418769   MPKI: 0.00858
LLC LOAD TRANSLATION ACCESS:       2695  HIT:       2507  MISS:        188  HIT %:    93.0241  MISS %:    6.97588   MPKI: 0.00376
LLC TRANSLATION FROM L1D PREFETCHER ACCESS:        123  HIT:        118  MISS:          5  HIT %:     95.935  MISS %:    4.06504   MPKI: 0.0001
LLCprefetch_cycle_count: 0 prefetches_per_prefetch_cycle: -nan
LLC PREFETCH  REQUESTED:          0  ISSUED:          0  USEFUL:       1726  USELESS:      14043
LLC USEFUL LOAD PREFETCHES:       1726 PREFETCH ISSUED TO LOWER LEVEL:      14488  ACCURACY: 11.9133
LLC TIMELY PREFETCHES:       1726 LATE PREFETCHES: 0 DROPPED PREFETCHES: 0
LLC PREFETCHES SAME FILL-ORIGIN LEVEL: 0 DIFFERENT FILL-ORIGIN LEVEL: 0
LLC AVERAGE MISS LATENCY: 161.061 cycles
LLC RQ	ACCESS:     147009	FORWARD:          0	MERGED:          0	TO_CACHE:     147008
LLC WQ	ACCESS:     102443	FORWARD:          1	MERGED:          0	TO_CACHE:     102443
LLC PQ	ACCESS:     206359	FORWARD:          0	MERGED:          0	TO_CACHE:     206359

LLC Dense regions hint to LLC: 0

RAW hits: 1540026
Loads Generated: 12056659
Loads sent to L1D: 10516637
Stores Generated: 6510203
Stores sent to L1D: 6510215
Major fault: 0 Minor fault: 2572
Allocated PAGES: 2572
I-Shadow cache 408 bytes
Touched + WorthPF tables 6144 bytes 
MMA filter 174 bytes 
FNL filter 272 bytes 
TOTAL PREFETCHER STORAGE SIZE: 25174 bytes
CPU 0 L1I next line prefetcher final stats

total_pref_operate_instances_l1: 7013937
dynamic_config_counter_instances_1: 7006042
dynamic_config_counter_instances_2: 4468
dynamic_config_counter_instances_3: 3427
dynamic_config_counter_instances_4: 0
dynamic_config_counter_instances_5: 0
stream: 
stream:times selected: 634511
stream:pref_filled: 95905
stream:pref_useful: 11605
stream:pref_late: 1655
stream:misses: 9859
stream:misses_by_poll: 0

CS: 
CS:times selected: 14641
CS:pref_filled: 8108
CS:pref_useful: 6107
CS:pref_late: 512
CS:misses: 1729
CS:misses_by_poll: 6

CPLX: 
CPLX:times selected: 606482
CPLX:pref_filled: 64304
CPLX:pref_useful: 5024
CPLX:pref_late: 1050
CPLX:misses: 35236
CPLX:misses_by_poll: 0

NL_L1: 
NL:times selected: 157891
NL:pref_filled: 47029
NL:pref_useful: 5416
NL:pref_late: 234
NL:misses: 38613
NL:misses_by_poll: 16

total selections: 1413525
total_filled: 55439
total_useful: 10376
total_late: 3870
total_polluted: 22
total_misses_after_warmup: 591688
conflicts: 2923481
Degree Incremented Times: 87
Degree Decremented Times: 297876

L1 IP Table Write Accesses: 3878655
L1 IP Table Read Accesses: 955174
L1 RST Write Accesses: 323560
L1 RST Read Accesses: 647120
L1 CSPT Write Accesses: 323560
L1 CSPT Read Accesses: 323640
L1 RR Filter Tag Write Accesses: 125489
L1 RR Filter Tag Read Accesses: 4920994
L1 IP Table Tag Write Accesses: 7013937
L1 IP Table Tag Read Accesses: 7013937
L1 RST Tag Write Accesses: 0
L1 RST Tag Read Accesses: 3360961
L1 RR Filter Write Accesses: 0
L1 RR Filter Read Accesses: 164077
test: 322746
total_pref_operate_instances_l2: 5027261
dynamic_config_counter_instances_l2_1: 4899466
dynamic_config_counter_instances_l2_2: 63791
dynamic_config_counter_instances_l2_3: 64004
dynamic_config_counter_instances_l2_4: 0
dynamic_config_counter_instances_l2_5: 0
L2 IP Table Read Accesses: 5160864
L2 IP Table Write Accesses: 9915926
L2 IP Table Tag Read Accesses: 5027261
L2 IP Table Tag Write Accesses: 5027261

DRAM Statistics
 CHANNEL 0
 RQ ROW_BUFFER_HIT:       5007  ROW_BUFFER_MISS:      27515
 DBUS_CONGESTED:         17
 WQ ROW_BUFFER_HIT:       2402  ROW_BUFFER_MISS:      13483  FULL:          0

 AVG_CONGESTED_CYCLE: 5
 All warmup complete: 2
Channel 0 Bank busy for read cycles: 0
Channel 0 Bank busy for write cycles: 0
Channel 0
Rank 0
0banks busy for read cycles: 60724919
0banks busy for write cycles: 7285
1banks busy for read cycles: 1632031
1banks busy for write cycles: 975259
2banks busy for read cycles: 822018
2banks busy for write cycles: 318214
3banks busy for read cycles: 218430
3banks busy for write cycles: 146492
4banks busy for read cycles: 64297
4banks busy for write cycles: 84766
5banks busy for read cycles: 22794
5banks busy for write cycles: 47735
6banks busy for read cycles: 7988
6banks busy for write cycles: 26527
7banks busy for read cycles: 3280
7banks busy for write cycles: 20288
8banks busy for read cycles: 590
8banks busy for write cycles: 14184

CPU 0 Branch Prediction Accuracy: 99.9029% MPKI: 0.19006 Average ROB Occupancy at Mispredict: 58.3676
Branch types
NOT_BRANCH: 40217157 80.4343%
BRANCH_DIRECT_JUMP: 774599 1.5492%
BRANCH_INDIRECT: 108807 0.217614%
BRANCH_CONDITIONAL: 6379334 12.7587%
BRANCH_DIRECT_CALL: 1048809 2.09762%
BRANCH_INDIRECT_CALL: 211109 0.422218%
BRANCH_RETURN: 1259926 2.51985%
BRANCH_OTHER: 0 0%

DRAM PAGES: 1048576
Allocated PAGES: 2572
