
*** ChampSim Multicore Out-of-Order Simulator ***

Warmup Instructions: 50000000
Simulation Instructions: 50000000
Number of CPUs: 1
LLC sets: 2048
LLC ways: 16
Off-chip DRAM Size: 4096 MB Channels: 1 Width: 64-bit Data Rate: 6400 MT/s
CPU 0 runs ../IPC-traces//server_021.champsimtrace.xz
.xz
NUM_OF_IPS_IN_CRITICAL_IP_TRAINING: 64
NUM_OF_CRITICAL_IP_TRAINING_TABLE_WAYS: 2
NUM_OF_CRITICAL_IP_TRAINING_TABLE_SETS: 32
WOBBLY_CRITICAL_IP_CACHE_SETS: 32
WOBBLY_CRITICAL_IP_CACHE_WAYS: 4
BTB has LRU replacement policy
ITLB has LRU replacement policy
DTLB has LRU replacement policy
STLB has LRU replacement policy
CPU 0 L1I next line prefetcher
L1I has LRU replacement policy
IP Table Entries: 64
L1D has LRU replacement policy
Initialize SRRIP state for L2C
Initialize DRRIP state for LLC
Heartbeat CPU 0 instructions: 10000000 cycles: 3152212 heartbeat IPC: 3.17238 cumulative IPC: 3.17238 (Simulation time: 0 hr 5 min 9 sec) 
Heartbeat CPU 0 instructions: 20000000 cycles: 6296826 heartbeat IPC: 3.18004 cumulative IPC: 3.1762 (Simulation time: 0 hr 10 min 22 sec) 
Heartbeat CPU 0 instructions: 30000000 cycles: 9478000 heartbeat IPC: 3.14349 cumulative IPC: 3.16522 (Simulation time: 0 hr 15 min 5 sec) 
Heartbeat CPU 0 instructions: 40000002 cycles: 12614245 heartbeat IPC: 3.18853 cumulative IPC: 3.17102 (Simulation time: 0 hr 19 min 47 sec) 
Heartbeat CPU 0 instructions: 50000000 cycles: 15780965 heartbeat IPC: 3.15784 cumulative IPC: 3.16837 (Simulation time: 0 hr 23 min 58 sec) 

Warmup complete CPU 0 instructions: 50000004 cycles: 15780966 (Simulation time: 0 hr 23 min 58 sec) 

% increase in all ip prefetch 462.451
% increase in all ip prefetch 2.38446
Heartbeat CPU 0 instructions: 60000001 cycles: 34220459 heartbeat IPC: 0.542314 cumulative IPC: 0.542314 (Simulation time: 0 hr 28 min 54 sec) 
Heartbeat CPU 0 instructions: 70000000 cycles: 51942514 heartbeat IPC: 0.564269 cumulative IPC: 0.553074 (Simulation time: 0 hr 33 min 35 sec) 
Heartbeat CPU 0 instructions: 80000003 cycles: 69565378 heartbeat IPC: 0.567445 cumulative IPC: 0.557782 (Simulation time: 0 hr 38 min 12 sec) 
Heartbeat CPU 0 instructions: 90000000 cycles: 87232071 heartbeat IPC: 0.566037 cumulative IPC: 0.559823 (Simulation time: 0 hr 42 min 58 sec) 
Heartbeat CPU 0 instructions: 100000002 cycles: 104892910 heartbeat IPC: 0.566225 cumulative IPC: 0.561092 (Simulation time: 0 hr 49 min 3 sec) 
Finished CPU 0 instructions: 50000002 cycles: 89111945 cumulative IPC: 0.561092 (Simulation time: 0 hr 49 min 3 sec) 

ChampSim completed all CPUs

Region of Interest Statistics

CPU 0 cumulative IPC: 0.561092 instructions: 50000002 cycles: 89111945

CPU 0 Average Load ROB stall cycles: 2.7609e+07
CPU 0 Fraction of times ROB stalled by Loads: 45.4551
CPU 0 Percentage of Load stall cycles in Total stall cycles: 2.74539e+08
Issued all: 47684302
Issued LT all: 42383611
rob_not_full_when_issued_lt_all: 16844417
Issued LT one: 36557061
rob_not_full_when_issued_lt_one: 12805335
 Total stall cycles: 71740822
 Total load stall cycles: 196956340784272
CPU 0 NUM of IPS identified critical: 0
CPU 0 Num of Load IPs stalling ROB: 4777
Threshold modification factor: -1
Max PIST entries: 64
Min PIST entries: 0
Avg PIST entries: 32
Trouble in retire width: 0.797566
MaC = Marked as critical.
lt_50_percent_before_Mac: 0
gt_90_percent_before_Mac: 0
gt_75_percent_before_Mac: 0
gt_50_percent_before_Mac: 0
stall_proportion_bin_same_before_after: 0
stall_proportion_bin_lower_before_after: 0
stall_proportion_bin_upper_before_after: 0
average_stall_proportion_before: -nan
average_stall_proportion_after: -nan
Critical IP stalls, total frequency: 0
Non-critical IP stalls, total frequency: 3242662
Total Freq all stalling IPs: 3242662
stat_90_percent_critical_ip_stalls_freq: 2918932
stat_90_percent_non_critical_ip_stalls_freq: 323730
Critical_IP_ROB_Stalls_Bucket_0: 0
Non-critical_IP_ROB_Stalls_Bucket_0: 505510
Critical_IP_ROB_Stalls_Bucket_1: 0
Non-critical_IP_ROB_Stalls_Bucket_1: 616813
Critical_IP_ROB_Stalls_Bucket_2: 0
Non-critical_IP_ROB_Stalls_Bucket_2: 433316
Critical_IP_ROB_Stalls_Bucket_3: 0
Non-critical_IP_ROB_Stalls_Bucket_3: 260713
Critical_IP_ROB_Stalls_Bucket_4: 0
Non-critical_IP_ROB_Stalls_Bucket_4: 169989
Critical_IP_ROB_Stalls_Bucket_5: 0
Non-critical_IP_ROB_Stalls_Bucket_5: 152714
Critical_IP_ROB_Stalls_Bucket_6: 0
Non-critical_IP_ROB_Stalls_Bucket_6: 1103607
0 => IPs accounting for >50 percent of stalls, 1 => 55, 2 => 60, 3 => 65 and so on till 90.
percent50: 50.2703 num IPs:  12
percent55: 55.07 num IPs: 30
percent60: 60.0367 num IPs: 61
percent65: 65.0206 num IPs: 107
percent70: 70.0161 num IPs: 174
percent75: 75.0481 num IPs: 242
percent80: 80.0139 num IPs: 311
percent85: 85.0536 num IPs: 388
percent90: 90.0168 num IPs: 484
Critical_ROB_Stalls_Percent_0_Bucket_0: 53259
Non-critical_ROB_Stalls_Percent_0_Bucket_0: 452251
Critical_ROB_Stalls_Percent_0_Bucket_1: 113084
Non-critical_ROB_Stalls_Percent_0_Bucket_1: 503729
Critical_ROB_Stalls_Percent_0_Bucket_2: 123237
Non-critical_ROB_Stalls_Percent_0_Bucket_2: 310079
Critical_ROB_Stalls_Percent_0_Bucket_3: 136894
Non-critical_ROB_Stalls_Percent_0_Bucket_3: 123819
Critical_ROB_Stalls_Percent_0_Bucket_4: 113118
Non-critical_ROB_Stalls_Percent_0_Bucket_4: 56871
Critical_ROB_Stalls_Percent_0_Bucket_5: 106370
Non-critical_ROB_Stalls_Percent_0_Bucket_5: 46344
Critical_ROB_Stalls_Percent_0_Bucket_6: 984134
Non-critical_ROB_Stalls_Percent_0_Bucket_6: 119473
Critical_ROB_Stalls_Percent_1_Bucket_0: 126242
Non-critical_ROB_Stalls_Percent_1_Bucket_0: 379268
Critical_ROB_Stalls_Percent_1_Bucket_1: 156938
Non-critical_ROB_Stalls_Percent_1_Bucket_1: 459875
Critical_ROB_Stalls_Percent_1_Bucket_2: 142522
Non-critical_ROB_Stalls_Percent_1_Bucket_2: 290794
Critical_ROB_Stalls_Percent_1_Bucket_3: 144034
Non-critical_ROB_Stalls_Percent_1_Bucket_3: 116679
Critical_ROB_Stalls_Percent_1_Bucket_4: 117655
Non-critical_ROB_Stalls_Percent_1_Bucket_4: 52334
Critical_ROB_Stalls_Percent_1_Bucket_5: 109691
Non-critical_ROB_Stalls_Percent_1_Bucket_5: 43023
Critical_ROB_Stalls_Percent_1_Bucket_6: 988651
Non-critical_ROB_Stalls_Percent_1_Bucket_6: 114956
Critical_ROB_Stalls_Percent_2_Bucket_0: 174078
Non-critical_ROB_Stalls_Percent_2_Bucket_0: 331432
Critical_ROB_Stalls_Percent_2_Bucket_1: 195336
Non-critical_ROB_Stalls_Percent_2_Bucket_1: 421477
Critical_ROB_Stalls_Percent_2_Bucket_2: 172745
Non-critical_ROB_Stalls_Percent_2_Bucket_2: 260571
Critical_ROB_Stalls_Percent_2_Bucket_3: 150053
Non-critical_ROB_Stalls_Percent_2_Bucket_3: 110660
Critical_ROB_Stalls_Percent_2_Bucket_4: 122134
Non-critical_ROB_Stalls_Percent_2_Bucket_4: 47855
Critical_ROB_Stalls_Percent_2_Bucket_5: 118611
Non-critical_ROB_Stalls_Percent_2_Bucket_5: 34103
Critical_ROB_Stalls_Percent_2_Bucket_6: 1013830
Non-critical_ROB_Stalls_Percent_2_Bucket_6: 89777
Critical_ROB_Stalls_Percent_3_Bucket_0: 215674
Non-critical_ROB_Stalls_Percent_3_Bucket_0: 289836
Critical_ROB_Stalls_Percent_3_Bucket_1: 237735
Non-critical_ROB_Stalls_Percent_3_Bucket_1: 379078
Critical_ROB_Stalls_Percent_3_Bucket_2: 206867
Non-critical_ROB_Stalls_Percent_3_Bucket_2: 226449
Critical_ROB_Stalls_Percent_3_Bucket_3: 159662
Non-critical_ROB_Stalls_Percent_3_Bucket_3: 101051
Critical_ROB_Stalls_Percent_3_Bucket_4: 127527
Non-critical_ROB_Stalls_Percent_3_Bucket_4: 42462
Critical_ROB_Stalls_Percent_3_Bucket_5: 124626
Non-critical_ROB_Stalls_Percent_3_Bucket_5: 28088
Critical_ROB_Stalls_Percent_3_Bucket_6: 1036307
Non-critical_ROB_Stalls_Percent_3_Bucket_6: 67300
Critical_ROB_Stalls_Percent_4_Bucket_0: 233827
Non-critical_ROB_Stalls_Percent_4_Bucket_0: 271683
Critical_ROB_Stalls_Percent_4_Bucket_1: 298563
Non-critical_ROB_Stalls_Percent_4_Bucket_1: 318250
Critical_ROB_Stalls_Percent_4_Bucket_2: 239942
Non-critical_ROB_Stalls_Percent_4_Bucket_2: 193374
Critical_ROB_Stalls_Percent_4_Bucket_3: 183930
Non-critical_ROB_Stalls_Percent_4_Bucket_3: 76783
Critical_ROB_Stalls_Percent_4_Bucket_4: 142612
Non-critical_ROB_Stalls_Percent_4_Bucket_4: 27377
Critical_ROB_Stalls_Percent_4_Bucket_5: 130933
Non-critical_ROB_Stalls_Percent_4_Bucket_5: 21781
Critical_ROB_Stalls_Percent_4_Bucket_6: 1040571
Non-critical_ROB_Stalls_Percent_4_Bucket_6: 63036
Critical_ROB_Stalls_Percent_5_Bucket_0: 261927
Non-critical_ROB_Stalls_Percent_5_Bucket_0: 243583
Critical_ROB_Stalls_Percent_5_Bucket_1: 351988
Non-critical_ROB_Stalls_Percent_5_Bucket_1: 264825
Critical_ROB_Stalls_Percent_5_Bucket_2: 285660
Non-critical_ROB_Stalls_Percent_5_Bucket_2: 147656
Critical_ROB_Stalls_Percent_5_Bucket_3: 201985
Non-critical_ROB_Stalls_Percent_5_Bucket_3: 58728
Critical_ROB_Stalls_Percent_5_Bucket_4: 148780
Non-critical_ROB_Stalls_Percent_5_Bucket_4: 21209
Critical_ROB_Stalls_Percent_5_Bucket_5: 135372
Non-critical_ROB_Stalls_Percent_5_Bucket_5: 17342
Critical_ROB_Stalls_Percent_5_Bucket_6: 1047839
Non-critical_ROB_Stalls_Percent_5_Bucket_6: 55768
Critical_ROB_Stalls_Percent_6_Bucket_0: 310340
Non-critical_ROB_Stalls_Percent_6_Bucket_0: 195170
Critical_ROB_Stalls_Percent_6_Bucket_1: 420337
Non-critical_ROB_Stalls_Percent_6_Bucket_1: 196476
Critical_ROB_Stalls_Percent_6_Bucket_2: 309798
Non-critical_ROB_Stalls_Percent_6_Bucket_2: 123518
Critical_ROB_Stalls_Percent_6_Bucket_3: 210108
Non-critical_ROB_Stalls_Percent_6_Bucket_3: 50605
Critical_ROB_Stalls_Percent_6_Bucket_4: 151435
Non-critical_ROB_Stalls_Percent_6_Bucket_4: 18554
Critical_ROB_Stalls_Percent_6_Bucket_5: 138015
Non-critical_ROB_Stalls_Percent_6_Bucket_5: 14699
Critical_ROB_Stalls_Percent_6_Bucket_6: 1054542
Non-critical_ROB_Stalls_Percent_6_Bucket_6: 49065
Critical_ROB_Stalls_Percent_7_Bucket_0: 353905
Non-critical_ROB_Stalls_Percent_7_Bucket_0: 151605
Critical_ROB_Stalls_Percent_7_Bucket_1: 463340
Non-critical_ROB_Stalls_Percent_7_Bucket_1: 153473
Critical_ROB_Stalls_Percent_7_Bucket_2: 356960
Non-critical_ROB_Stalls_Percent_7_Bucket_2: 76356
Critical_ROB_Stalls_Percent_7_Bucket_3: 226185
Non-critical_ROB_Stalls_Percent_7_Bucket_3: 34528
Critical_ROB_Stalls_Percent_7_Bucket_4: 156970
Non-critical_ROB_Stalls_Percent_7_Bucket_4: 13019
Critical_ROB_Stalls_Percent_7_Bucket_5: 139632
Non-critical_ROB_Stalls_Percent_7_Bucket_5: 13082
Critical_ROB_Stalls_Percent_7_Bucket_6: 1061001
Non-critical_ROB_Stalls_Percent_7_Bucket_6: 42606
Critical_ROB_Stalls_Percent_8_Bucket_0: 404048
Non-critical_ROB_Stalls_Percent_8_Bucket_0: 101462
Critical_ROB_Stalls_Percent_8_Bucket_1: 517826
Non-critical_ROB_Stalls_Percent_8_Bucket_1: 98987
Critical_ROB_Stalls_Percent_8_Bucket_2: 380101
Non-critical_ROB_Stalls_Percent_8_Bucket_2: 53215
Critical_ROB_Stalls_Percent_8_Bucket_3: 233861
Non-critical_ROB_Stalls_Percent_8_Bucket_3: 26852
Critical_ROB_Stalls_Percent_8_Bucket_4: 160124
Non-critical_ROB_Stalls_Percent_8_Bucket_4: 9865
Critical_ROB_Stalls_Percent_8_Bucket_5: 145704
Non-critical_ROB_Stalls_Percent_8_Bucket_5: 7010
Critical_ROB_Stalls_Percent_8_Bucket_6: 1077268
Non-critical_ROB_Stalls_Percent_8_Bucket_6: 26339
Average ROB occupancy Load Stall Begin: 184.146
Average ROB occupancy Load Stall End: 192.511
Min ROB occupancy Load Stall Begin: 1
Max ROB occupancy Load Stall Begin: 352
Min ROB occupancy Load Stall End: 1
Max ROB occupancy Load Stall End: 352
Average ROB occupancy Critical Load Stall Begin: -nan
Average ROB occupancy Critical Load Stall End: -nan
Min ROB occupancy Critical Load Stall Begin: 400
Max ROB occupancy Critical Load Stall Begin: 0
Min ROB occupancy Critical Load Stall End: 400
Max ROB occupancy Critical Load Stall End: 0
 ROB Load Stall Begin Bucket Count 0: 713908
 ROB Load Stall End Bucket Count 0: 505510
 ROB Critical Load Stall Begin Bucket Count 0: 0
 ROB Critical Load Stall End Bucket Count 0: 0
 ROB Load Stall Begin Bucket Count 1: 542254
 ROB Load Stall End Bucket Count 1: 616813
 ROB Critical Load Stall Begin Bucket Count 1: 0
 ROB Critical Load Stall End Bucket Count 1: 0
 ROB Load Stall Begin Bucket Count 2: 378550
 ROB Load Stall End Bucket Count 2: 433316
 ROB Critical Load Stall Begin Bucket Count 2: 0
 ROB Critical Load Stall End Bucket Count 2: 0
 ROB Load Stall Begin Bucket Count 3: 221366
 ROB Load Stall End Bucket Count 3: 260713
 ROB Critical Load Stall Begin Bucket Count 3: 0
 ROB Critical Load Stall End Bucket Count 3: 0
 ROB Load Stall Begin Bucket Count 4: 157423
 ROB Load Stall End Bucket Count 4: 169989
 ROB Critical Load Stall Begin Bucket Count 4: 0
 ROB Critical Load Stall End Bucket Count 4: 0
 ROB Load Stall Begin Bucket Count 5: 153715
 ROB Load Stall End Bucket Count 5: 152714
 ROB Critical Load Stall Begin Bucket Count 5: 0
 ROB Critical Load Stall End Bucket Count 5: 0
 ROB Load Stall Begin Bucket Count 6: 1075446
 ROB Load Stall End Bucket Count 6: 1103607
 ROB Critical Load Stall Begin Bucket Count 6: 0
 ROB Critical Load Stall End Bucket Count 6: 0
PIST Tag Read Accesses: 2797118
PIST Read Accesses: 1398559
PIST Tag Write Accesses: 2797118
PIST Write Accesses: 1398559
Criticality detector called times: 1766381
Max global_stall_cycles_count: 3758705
Threshold Modified: 1 times, factor: -1
Sturdy critical IP cache stats: 
 Unused entries: 0
CIC Tag Read Accesses: 0
CIC Read Accesses: 0
CIC Tag Write Accesses: 0
CIC Write Accesses: 0
Wobbly critical IP cache stats: 
 Unused entries: 117
CIC Tag Read Accesses: 92495294
CIC Read Accesses: 0
CIC Tag Write Accesses: 155
CIC Write Accesses: 0
ITLB TOTAL     ACCESS:   10327283  HIT:    9832687  MISS:     494596  HIT %:    95.2108  MISS %:    4.78922   MPKI: 9.89192
ITLB LOAD TRANSLATION ACCESS:    8399154  HIT:    8388121  MISS:      11033  HIT %:    99.8686  MISS %:   0.131358   MPKI: 0.22066
ITLB TRANSLATION FROM L1D PREFETCHER ACCESS:    1928129  HIT:    1444566  MISS:     483563  HIT %:    74.9206  MISS %:    25.0794   MPKI: 9.67126
ITLB PREFETCH  REQUESTED:          0  ISSUED:          0  USEFUL:     432876  USELESS:      50689
ITLB USEFUL LOAD PREFETCHES:     432876 PREFETCH ISSUED TO LOWER LEVEL:          0  ACCURACY: inf
ITLB TIMELY PREFETCHES:     432876 LATE PREFETCHES: 177 DROPPED PREFETCHES: 0
ITLB PREFETCHES SAME FILL-ORIGIN LEVEL: 0 DIFFERENT FILL-ORIGIN LEVEL: 0
ITLB AVERAGE MISS LATENCY: 21910.9 cycles
ITLB RQ	ACCESS:   14828215	FORWARD:          0	MERGED:    4451005	TO_CACHE:   10377210

DTLB TOTAL     ACCESS:   10886763  HIT:   10482904  MISS:     403859  HIT %:    96.2904  MISS %:    3.70963   MPKI: 8.07718
DTLB LOAD TRANSLATION ACCESS:   10886763  HIT:   10482904  MISS:     403859  HIT %:    96.2904  MISS %:    3.70963   MPKI: 8.07718
DTLB PREFETCH  REQUESTED:          0  ISSUED:          0  USEFUL:          0  USELESS:          0
DTLB USEFUL LOAD PREFETCHES:          0 PREFETCH ISSUED TO LOWER LEVEL:          0  ACCURACY: -nan
DTLB TIMELY PREFETCHES:          0 LATE PREFETCHES: 0 DROPPED PREFETCHES: 0
DTLB PREFETCHES SAME FILL-ORIGIN LEVEL: 0 DIFFERENT FILL-ORIGIN LEVEL: 0
DTLB AVERAGE MISS LATENCY: 16.3527 cycles
DTLB RQ	ACCESS:   16206990	FORWARD:          0	MERGED:    5236204	TO_CACHE:   10970786

STLB TOTAL     ACCESS:    1459470  HIT:    1439143  MISS:      20327  HIT %:    98.6072  MISS %:    1.39277   MPKI: 0.40654
STLB LOAD TRANSLATION ACCESS:     414715  HIT:     394783  MISS:      19932  HIT %:    95.1938  MISS %:    4.80619   MPKI: 0.39864
STLB TRANSLATION FROM L1D PREFETCHER ACCESS:    1044755  HIT:    1044360  MISS:        395  HIT %:    99.9622  MISS %:  0.0378079   MPKI: 0.0079
STLB PREFETCH  REQUESTED:          0  ISSUED:          0  USEFUL:        180  USELESS:        202
STLB USEFUL LOAD PREFETCHES:        180 PREFETCH ISSUED TO LOWER LEVEL:          0  ACCURACY: inf
STLB TIMELY PREFETCHES:        180 LATE PREFETCHES: 0 DROPPED PREFETCHES: 0
STLB PREFETCHES SAME FILL-ORIGIN LEVEL: 0 DIFFERENT FILL-ORIGIN LEVEL: 0
STLB AVERAGE MISS LATENCY: 152.186 cycles
STLB RQ	ACCESS:    1570629	FORWARD:          0	MERGED:     111159	TO_CACHE:    1459470

STLB Hit, L1D data hit: 0
STLB Hit, L2C data hit: 0
STLB Hit, LLC data hit: 0
STLB Hit, LLC data miss: 0
STLB STLB hints to L2: 0
L1D TOTAL     ACCESS:   14362436  HIT:   12491688  MISS:    1870748  HIT %:    86.9747  MISS %:    13.0253   MPKI: 37.415
L1D LOAD      ACCESS:    7397255  HIT:    6892832  MISS:     504423  HIT %:    93.1809  MISS %:    6.81906   MPKI: 10.0885
L1D RFO       ACCESS:    6313787  HIT:    5321886  MISS:     991901  HIT %:    84.2899  MISS %:    15.7101   MPKI: 19.838
L1D PREFETCH  ACCESS:     651394  HIT:     276970  MISS:     374424  HIT %:    42.5196  MISS %:    57.4804   MPKI: 7.48848
L1D PREFETCH  REQUESTED:    1346240  ISSUED:    1344351  USEFUL:     321699  USELESS:      52729
L1D USEFUL LOAD PREFETCHES:     321699 PREFETCH ISSUED TO LOWER LEVEL:     384861  ACCURACY: 83.5884
L1D TIMELY PREFETCHES:     321699 LATE PREFETCHES: 10436 DROPPED PREFETCHES: 0
L1D PREFETCHES SAME FILL-ORIGIN LEVEL: 384861 DIFFERENT FILL-ORIGIN LEVEL: 0
L1D AVERAGE MISS LATENCY: 308729 cycles
L1D RQ	ACCESS:   11078133	FORWARD:          0	MERGED:    3517897	TO_CACHE:    7437103
L1D WQ	ACCESS:    8864293	FORWARD:     123136	MERGED:      94406	TO_CACHE:    8769887
L1D PQ	ACCESS:     672177	FORWARD:          0	MERGED:          0	TO_CACHE:     672174

L1D UNIQUE REGIONS ACCESSED: 0
L1D REGIONS CONFLICTS: 0
L1D Cross Page Prefetch Requests: 0
L1D Same Page Prefetch Requests: 1604737
L1D ROI Sum of L1D PQ occupancy: 10641530
L1D PREFETCHES PUSHED FROM L2C: 0
L1I TOTAL     ACCESS:   14751130  HIT:   11565532  MISS:    3185598  HIT %:    78.4044  MISS %:    21.5956   MPKI: 63.712
L1I LOAD      ACCESS:    9801250  HIT:    9782500  MISS:      18750  HIT %:    99.8087  MISS %:   0.191302   MPKI: 0.375
L1I PREFETCH  ACCESS:    4949880  HIT:    1783032  MISS:    3166848  HIT %:    36.0217  MISS %:    63.9783   MPKI: 63.337
L1I PREFETCH  REQUESTED:    5217770  ISSUED:    5208583  USEFUL:    2636699  USELESS:     530170
L1I USEFUL LOAD PREFETCHES:    2636699 PREFETCH ISSUED TO LOWER LEVEL:    3172684  ACCURACY: 83.1063
L1I TIMELY PREFETCHES:    2636699 LATE PREFETCHES: 5832 DROPPED PREFETCHES: 0
L1I PREFETCHES SAME FILL-ORIGIN LEVEL: 3172684 DIFFERENT FILL-ORIGIN LEVEL: 0
L1I AVERAGE MISS LATENCY: 113988 cycles
L1I RQ	ACCESS:   14095798	FORWARD:          0	MERGED:    4290672	TO_CACHE:    9805126
L1I PQ	ACCESS:    5208583	FORWARD:          0	MERGED:     185494	TO_CACHE:    5023089

BTB TOTAL     ACCESS:    5300075  HIT:    5041527  MISS:     258548  HIT %:    95.1218  MISS %:     4.8782   MPKI: 5.17096
BTB BRANCH_DIRECT_JUMP	ACCESS:     445212  HIT:     443383  MISS:       1829
BTB BRANCH_INDIRECT	ACCESS:      50481  HIT:      50386  MISS:         95
BTB BRANCH_CONDITIONAL	ACCESS:    2966952  HIT:    2961198  MISS:       5754
BTB BRANCH_DIRECT_CALL	ACCESS:     758223  HIT:     754416  MISS:       3807
BTB BRANCH_INDIRECT_CALL	ACCESS:     160492  HIT:     130806  MISS:      29686
BTB BRANCH_RETURN	ACCESS:     918715  HIT:     701338  MISS:     217377
BTB BRANCH_OTHER ACCESS:          0  HIT:          0  MISS:          0

L2C TOTAL     ACCESS:    6246539  HIT:    4417297  MISS:    1829242  HIT %:    70.7159  MISS %:    29.2841   MPKI: 36.5848
L2C LOAD      ACCESS:     506886  HIT:     171996  MISS:     334890  HIT %:    33.9319  MISS %:    66.0681   MPKI: 6.6978
L2C DATA LOAD MPKI: 6.61708
L2C INSTRUCTION LOAD MPKI: 0.08072
L2C RFO       ACCESS:     991897  HIT:      39275  MISS:     952622  HIT %:    3.95958  MISS %:    96.0404   MPKI: 19.0524
L2C PREFETCH  ACCESS:    3557542  HIT:    3065392  MISS:     492150  HIT %:     86.166  MISS %:     13.834   MPKI: 9.843
L2C DATA PREFETCH MPKI: 6.75138
L2C INSTRUCTION PREFETCH MPKI: 3.09162
L2C WRITEBACK ACCESS:    1168348  HIT:    1128013  MISS:      40335  HIT %:    96.5477  MISS %:    3.45231   MPKI: 0.8067
L2C LOAD TRANSLATION ACCESS:      21301  HIT:      12503  MISS:       8798  HIT %:    58.6968  MISS %:    41.3032   MPKI: 0.17596
L2C TRANSLATION FROM L1D PREFETCHER ACCESS:        565  HIT:        118  MISS:        447  HIT %:     20.885  MISS %:     79.115   MPKI: 0.00894
L2C PREFETCH  REQUESTED:          0  ISSUED:          0  USEFUL:       3108  USELESS:     489583
L2C USEFUL LOAD PREFETCHES:       3108 PREFETCH ISSUED TO LOWER LEVEL:     492150  ACCURACY: 0.631515
L2C TIMELY PREFETCHES:       3108 LATE PREFETCHES: 0 DROPPED PREFETCHES: 0
L2C PREFETCHES SAME FILL-ORIGIN LEVEL: 0 DIFFERENT FILL-ORIGIN LEVEL: 0
L2C AVERAGE MISS LATENCY: 163.771 cycles
L2C RQ	ACCESS:    1520671	FORWARD:          0	MERGED:          0	TO_CACHE:    1520649
L2C WQ	ACCESS:    1168348	FORWARD:         23	MERGED:          0	TO_CACHE:    1168348
L2C PQ	ACCESS:    3557545	FORWARD:          0	MERGED:          0	TO_CACHE:    3557544

L2C Instructions Evicting Data 146012
L2C Translations Evicting Data 8335
L2C Data Evicting Data 1470232
L2C Instructions Evicting Instructions 11807
L2C Translations Evicting Instructions 866
L2C Data Evicting Instructions 142579
L2C Instructions Evicting Translations 798
L2C Translations Evicting Translations 44
L2C Data Evicting Translations 8234
L2C Dense regions hint from L2: 0
PSCL5 TOTAL     ACCESS:      20327  HIT:      20327  MISS:          0  HIT %:        100  MISS %:          0   MPKI: 0
PSCL5 LOAD TRANSLATION ACCESS:      19932  HIT:      19932  MISS:          0  HIT %:        100  MISS %:          0   MPKI: 0
PSCL5 TRANSLATION FROM L1D PREFETCHER ACCESS:        395  HIT:        395  MISS:          0  HIT %:        100  MISS %:          0   MPKI: 0
PSCL5 PREFETCH  REQUESTED:          0  ISSUED:          0  USEFUL:          0  USELESS:          0
PSCL5 USEFUL LOAD PREFETCHES:          0 PREFETCH ISSUED TO LOWER LEVEL:          0  ACCURACY: -nan
PSCL5 TIMELY PREFETCHES:          0 LATE PREFETCHES: 0 DROPPED PREFETCHES: 0
PSCL5 PREFETCHES SAME FILL-ORIGIN LEVEL: 0 DIFFERENT FILL-ORIGIN LEVEL: 0

PSCL4 TOTAL     ACCESS:      19627  HIT:      19584  MISS:         43  HIT %:    99.7809  MISS %:   0.219086   MPKI: 0.00086
PSCL4 LOAD TRANSLATION ACCESS:      19246  HIT:      19203  MISS:         43  HIT %:    99.7766  MISS %:   0.223423   MPKI: 0.00086
PSCL4 TRANSLATION FROM L1D PREFETCHER ACCESS:        381  HIT:        381  MISS:          0  HIT %:        100  MISS %:          0   MPKI: 0
PSCL4 PREFETCH  REQUESTED:          0  ISSUED:          0  USEFUL:          0  USELESS:          0
PSCL4 USEFUL LOAD PREFETCHES:          0 PREFETCH ISSUED TO LOWER LEVEL:          0  ACCURACY: -nan
PSCL4 TIMELY PREFETCHES:          0 LATE PREFETCHES: 0 DROPPED PREFETCHES: 0
PSCL4 PREFETCHES SAME FILL-ORIGIN LEVEL: 0 DIFFERENT FILL-ORIGIN LEVEL: 0

PSCL3 TOTAL     ACCESS:      19960  HIT:      19917  MISS:         43  HIT %:    99.7846  MISS %:   0.215431   MPKI: 0.00086
PSCL3 LOAD TRANSLATION ACCESS:      19579  HIT:      19536  MISS:         43  HIT %:    99.7804  MISS %:   0.219623   MPKI: 0.00086
PSCL3 TRANSLATION FROM L1D PREFETCHER ACCESS:        381  HIT:        381  MISS:          0  HIT %:        100  MISS %:          0   MPKI: 0
PSCL3 PREFETCH  REQUESTED:          0  ISSUED:          0  USEFUL:          0  USELESS:          0
PSCL3 USEFUL LOAD PREFETCHES:          0 PREFETCH ISSUED TO LOWER LEVEL:          0  ACCURACY: -nan
PSCL3 TIMELY PREFETCHES:          0 LATE PREFETCHES: 0 DROPPED PREFETCHES: 0
PSCL3 PREFETCHES SAME FILL-ORIGIN LEVEL: 0 DIFFERENT FILL-ORIGIN LEVEL: 0

PSCL2 TOTAL     ACCESS:      20327  HIT:      18850  MISS:       1477  HIT %:    92.7338  MISS %:     7.2662   MPKI: 0.02954
PSCL2 LOAD TRANSLATION ACCESS:      20078  HIT:      18601  MISS:       1477  HIT %:    92.6437  MISS %:    7.35631   MPKI: 0.02954
PSCL2 TRANSLATION FROM L1D PREFETCHER ACCESS:        249  HIT:        249  MISS:          0  HIT %:        100  MISS %:          0   MPKI: 0
PSCL2 PREFETCH  REQUESTED:          0  ISSUED:          0  USEFUL:          0  USELESS:          0
PSCL2 USEFUL LOAD PREFETCHES:          0 PREFETCH ISSUED TO LOWER LEVEL:          0  ACCURACY: -nan
PSCL2 TIMELY PREFETCHES:          0 LATE PREFETCHES: 0 DROPPED PREFETCHES: 0
PSCL2 PREFETCHES SAME FILL-ORIGIN LEVEL: 0 DIFFERENT FILL-ORIGIN LEVEL: 0

LLC TOTAL     ACCESS:    2876662  HIT:    1227392  MISS:    1649270  HIT %:    42.6672  MISS %:    57.3328   MPKI: 32.9854
LLC LOAD      ACCESS:     334890  HIT:     286263  MISS:      48627  HIT %:    85.4797  MISS %:    14.5203   MPKI: 0.97254
LLC RFO       ACCESS:     952620  HIT:     249311  MISS:     703309  HIT %:    26.1711  MISS %:    73.8289   MPKI: 14.0662
LLC PREFETCH  ACCESS:     492150  HIT:     176189  MISS:     315961  HIT %:    35.7999  MISS %:    64.2001   MPKI: 6.31922
LLC WRITEBACK ACCESS:    1087757  HIT:     512151  MISS:     575606  HIT %:    47.0832  MISS %:    52.9168   MPKI: 11.5121
LLC LOAD TRANSLATION ACCESS:       8798  HIT:       3313  MISS:       5485  HIT %:    37.6563  MISS %:    62.3437   MPKI: 0.1097
LLC TRANSLATION FROM L1D PREFETCHER ACCESS:        447  HIT:        165  MISS:        282  HIT %:    36.9128  MISS %:    63.0872   MPKI: 0.00564
LLC PREFETCH  REQUESTED:          0  ISSUED:          0  USEFUL:        701  USELESS:     320897
LLC USEFUL LOAD PREFETCHES:        701 PREFETCH ISSUED TO LOWER LEVEL:     315961  ACCURACY: 0.221863
LLC TIMELY PREFETCHES:        701 LATE PREFETCHES: 0 DROPPED PREFETCHES: 0
LLC PREFETCHES SAME FILL-ORIGIN LEVEL: 0 DIFFERENT FILL-ORIGIN LEVEL: 0
LLC AVERAGE MISS LATENCY: 147.525 cycles
LLC RQ	ACCESS:    1296757	FORWARD:          0	MERGED:          0	TO_CACHE:    1296755
LLC WQ	ACCESS:    1087757	FORWARD:          2	MERGED:          0	TO_CACHE:    1087757
LLC PQ	ACCESS:     492150	FORWARD:          0	MERGED:          0	TO_CACHE:     492150

LLC Dense regions hint to LLC: 0

RAW hits: 1387479
Loads Generated: 12465612
Loads sent to L1D: 11078133
Stores Generated: 8864282
Stores sent to L1D: 8864293
Major fault: 0 Minor fault: 22424
Allocated PAGES: 22424
I-Shadow cache 408 bytes
Touched + WorthPF tables 6144 bytes 
MMA filter 174 bytes 
FNL filter 272 bytes 
TOTAL PREFETCHER STORAGE SIZE: 25174 bytes
CPU 0 L1I next line prefetcher final stats

stream: 
stream:times selected: 3348779
stream:pref_filled: 880183
stream:pref_useful: 650396
stream:pref_late: 13496
stream:misses: 6642
stream:misses_by_poll: 0

CS: 
CS:times selected: 3194031
CS:pref_filled: 4729
CS:pref_useful: 4552
CS:pref_late: 580
CS:misses: 18073
CS:misses_by_poll: 16

CPLX: 
CPLX:times selected: 152331
CPLX:pref_filled: 7893
CPLX:pref_useful: 859
CPLX:pref_late: 150
CPLX:misses: 21593
CPLX:misses_by_poll: 0

NL_L1: 
NL:times selected: 547
NL:pref_filled: 122
NL:pref_useful: 8
NL:pref_late: 6
NL:misses: 103
NL:misses_by_poll: 0

total selections: 6695688
total_filled: 374424
total_useful: 321699
total_late: 15114
total_polluted: 16
total_misses_after_warmup: 41635
conflicts: 106585
Degree Incremented Times: 77255
Degree Decremented Times: 36700

L1 IP Table Write Accesses: 1626347
L1 IP Table Read Accesses: 1519762
L1 RST Write Accesses: 1492434
L1 RST Read Accesses: 2984868
L1 CSPT Write Accesses: 1492434
L1 CSPT Read Accesses: 1505228
L1 RR Filter Tag Write Accesses: 674066
L1 RR Filter Tag Read Accesses: 377052649
L1 IP Table Tag Write Accesses: 1738218
L1 IP Table Tag Read Accesses: 1738218
L1 RST Tag Write Accesses: 0
L1 RST Tag Read Accesses: 13478414
L1 RR Filter Write Accesses: 0
L1 RR Filter Read Accesses: 12893327
test: 107866

DRAM Statistics
 CHANNEL 0
 RQ ROW_BUFFER_HIT:     480374  ROW_BUFFER_MISS:     593178
 DBUS_CONGESTED:        548
 WQ ROW_BUFFER_HIT:     161767  ROW_BUFFER_MISS:     558047  FULL:      13867

 AVG_CONGESTED_CYCLE: 3
 All warmup complete: 2
Channel 0 Bank busy for read cycles: 0
Channel 0 Bank busy for write cycles: 0
Channel 0
Rank 0
0banks busy for read cycles: 26559976
0banks busy for write cycles: 50065
1banks busy for read cycles: 11540480
1banks busy for write cycles: 7179613
2banks busy for read cycles: 9203742
2banks busy for write cycles: 3010822
3banks busy for read cycles: 4031424
3banks busy for write cycles: 1531449
4banks busy for read cycles: 3090211
4banks busy for write cycles: 1062819
5banks busy for read cycles: 1011287
5banks busy for write cycles: 965844
6banks busy for read cycles: 1107054
6banks busy for write cycles: 986953
7banks busy for read cycles: 1720505
7banks busy for write cycles: 1716897
8banks busy for read cycles: 4616451
8banks busy for write cycles: 9726354

CPU 0 Branch Prediction Accuracy: 99.8303% MPKI: 0.27836 Average ROB Occupancy at Mispredict: 110.594
Branch types
NOT_BRANCH: 41798375 83.5967%
BRANCH_DIRECT_JUMP: 445212 0.890424%
BRANCH_INDIRECT: 50481 0.100962%
BRANCH_CONDITIONAL: 5868224 11.7364%
BRANCH_DIRECT_CALL: 758223 1.51645%
BRANCH_INDIRECT_CALL: 160492 0.320984%
BRANCH_RETURN: 918715 1.83743%
BRANCH_OTHER: 0 0%

DRAM PAGES: 1048576
Allocated PAGES: 22424
