
*** ChampSim Multicore Out-of-Order Simulator ***

Warmup Instructions: 50000000
Simulation Instructions: 50000000
Number of CPUs: 1
LLC sets: 2048
LLC ways: 16
Off-chip DRAM Size: 4096 MB Channels: 1 Width: 64-bit Data Rate: 6400 MT/s
CPU 0 runs ../IPC-traces//server_019.champsimtrace.xz
.xz
NUM_OF_IPS_IN_CRITICAL_IP_TRAINING: 64
NUM_OF_CRITICAL_IP_TRAINING_TABLE_WAYS: 2
NUM_OF_CRITICAL_IP_TRAINING_TABLE_SETS: 32
WOBBLY_CRITICAL_IP_CACHE_SETS: 32
WOBBLY_CRITICAL_IP_CACHE_WAYS: 4
BTB has LRU replacement policy
ITLB has LRU replacement policy
DTLB has LRU replacement policy
STLB has LRU replacement policy
CPU 0 L1I next line prefetcher
L1I has LRU replacement policy
IP Table Entries: 64
L1D has LRU replacement policy
IP_Table L2 entries: 64
Initialize SRRIP state for L2C
Initialize DRRIP state for LLC
Heartbeat CPU 0 instructions: 10000002 cycles: 3147730 heartbeat IPC: 3.17689 cumulative IPC: 3.17689 (Simulation time: 0 hr 3 min 57 sec) 
Heartbeat CPU 0 instructions: 20000001 cycles: 6292934 heartbeat IPC: 3.17944 cumulative IPC: 3.17817 (Simulation time: 0 hr 7 min 15 sec) 
Heartbeat CPU 0 instructions: 30000001 cycles: 9437775 heartbeat IPC: 3.17981 cumulative IPC: 3.17872 (Simulation time: 0 hr 9 min 54 sec) 
Heartbeat CPU 0 instructions: 40000002 cycles: 12596908 heartbeat IPC: 3.16543 cumulative IPC: 3.17538 (Simulation time: 0 hr 12 min 32 sec) 
Heartbeat CPU 0 instructions: 50000001 cycles: 15739511 heartbeat IPC: 3.18208 cumulative IPC: 3.17672 (Simulation time: 0 hr 15 min 3 sec) 

Warmup complete CPU 0 instructions: 50000001 cycles: 15739511 (Simulation time: 0 hr 15 min 3 sec) 

% increase in all ip prefetch 628.15
% increase in all ip prefetch -17.6033
Heartbeat CPU 0 instructions: 60000003 cycles: 37521326 heartbeat IPC: 0.459099 cumulative IPC: 0.459099 (Simulation time: 0 hr 18 min 31 sec) 
Heartbeat CPU 0 instructions: 70000002 cycles: 63276567 heartbeat IPC: 0.38827 cumulative IPC: 0.420724 (Simulation time: 0 hr 21 min 44 sec) 
Heartbeat CPU 0 instructions: 80000001 cycles: 86637017 heartbeat IPC: 0.428074 cumulative IPC: 0.423146 (Simulation time: 0 hr 24 min 33 sec) 
Heartbeat CPU 0 instructions: 90000001 cycles: 106354653 heartbeat IPC: 0.50716 cumulative IPC: 0.441427 (Simulation time: 0 hr 28 min 46 sec) 
Heartbeat CPU 0 instructions: 100000002 cycles: 126003431 heartbeat IPC: 0.508938 cumulative IPC: 0.453458 (Simulation time: 0 hr 32 min 52 sec) 
Finished CPU 0 instructions: 50000001 cycles: 110263920 cumulative IPC: 0.453457 (Simulation time: 0 hr 32 min 52 sec) 

ChampSim completed all CPUs

Region of Interest Statistics

CPU 0 cumulative IPC: 0.453457 instructions: 50000001 cycles: 110263920

CPU 0 Average Load ROB stall cycles: 9.44436e+06
CPU 0 Fraction of times ROB stalled by Loads: 12.7511
CPU 0 Percentage of Load stall cycles in Total stall cycles: 9.83762e+07
 Total stall cycles: 49355968
 Total load stall cycles: 48554515571235
CPU 0 NUM of IPS identified critical: 6
CPU 0 Num of Load IPs stalling ROB: 2224
Threshold modification factor: -1
Max PIST entries: 64
Min PIST entries: 0
Avg PIST entries: 29.89
Trouble in retire width: 0.853969
MaC = Marked as critical.
lt_50_percent_before_Mac: 6
gt_90_percent_before_Mac: 0
gt_75_percent_before_Mac: 0
gt_50_percent_before_Mac: 0
stall_proportion_bin_same_before_after: 0
stall_proportion_bin_lower_before_after: 0
stall_proportion_bin_upper_before_after: 0
average_stall_proportion_before: 0.131257
average_stall_proportion_after: 0.135441
Critical IP stalls, total frequency: 264443
Non-critical IP stalls, total frequency: 375166
Critical_IP_ROB_Stalls_Bucket_0: 7926
Non-critical_IP_ROB_Stalls_Bucket_0: 158280
Critical_IP_ROB_Stalls_Bucket_1: 27935
Non-critical_IP_ROB_Stalls_Bucket_1: 106363
Critical_IP_ROB_Stalls_Bucket_2: 35227
Non-critical_IP_ROB_Stalls_Bucket_2: 57353
Critical_IP_ROB_Stalls_Bucket_3: 47759
Non-critical_IP_ROB_Stalls_Bucket_3: 21431
Critical_IP_ROB_Stalls_Bucket_4: 34177
Non-critical_IP_ROB_Stalls_Bucket_4: 9732
Critical_IP_ROB_Stalls_Bucket_5: 36180
Non-critical_IP_ROB_Stalls_Bucket_5: 11034
Critical_IP_ROB_Stalls_Bucket_6: 75239
Non-critical_IP_ROB_Stalls_Bucket_6: 26915
0 => IPs accounting for >50 percent of stalls, 1 => 55, 2 => 60, 3 => 65 and so on till 90.
percent50: 50.3489 num IPs:15
percent55: 55.1642 num IPs:29
percent60: 60.064 num IPs:45
percent65: 65.0341 num IPs:63
percent70: 70.0298 num IPs:83
percent75: 75.0315 num IPs:107
percent80: 80.0594 num IPs:138
percent85: 85.0334 num IPs:183
percent90: 90.0303 num IPs:265
Critical_ROB_Stalls_Percent_0_Bucket_0: 35375
Non-critical_ROB_Stalls_Percent_0_Bucket_0: 130831
Critical_ROB_Stalls_Percent_0_Bucket_1: 46030
Non-critical_ROB_Stalls_Percent_0_Bucket_1: 88268
Critical_ROB_Stalls_Percent_0_Bucket_2: 40908
Non-critical_ROB_Stalls_Percent_0_Bucket_2: 51672
Critical_ROB_Stalls_Percent_0_Bucket_3: 47137
Non-critical_ROB_Stalls_Percent_0_Bucket_3: 22053
Critical_ROB_Stalls_Percent_0_Bucket_4: 34611
Non-critical_ROB_Stalls_Percent_0_Bucket_4: 9298
Critical_ROB_Stalls_Percent_0_Bucket_5: 39138
Non-critical_ROB_Stalls_Percent_0_Bucket_5: 8076
Critical_ROB_Stalls_Percent_0_Bucket_6: 78837
Non-critical_ROB_Stalls_Percent_0_Bucket_6: 23317
Critical_ROB_Stalls_Percent_1_Bucket_0: 41475
Non-critical_ROB_Stalls_Percent_1_Bucket_0: 124731
Critical_ROB_Stalls_Percent_1_Bucket_1: 54482
Non-critical_ROB_Stalls_Percent_1_Bucket_1: 79816
Critical_ROB_Stalls_Percent_1_Bucket_2: 45795
Non-critical_ROB_Stalls_Percent_1_Bucket_2: 46785
Critical_ROB_Stalls_Percent_1_Bucket_3: 51198
Non-critical_ROB_Stalls_Percent_1_Bucket_3: 17992
Critical_ROB_Stalls_Percent_1_Bucket_4: 35290
Non-critical_ROB_Stalls_Percent_1_Bucket_4: 8619
Critical_ROB_Stalls_Percent_1_Bucket_5: 40631
Non-critical_ROB_Stalls_Percent_1_Bucket_5: 6583
Critical_ROB_Stalls_Percent_1_Bucket_6: 83964
Non-critical_ROB_Stalls_Percent_1_Bucket_6: 18190
Critical_ROB_Stalls_Percent_2_Bucket_0: 54731
Non-critical_ROB_Stalls_Percent_2_Bucket_0: 111475
Critical_ROB_Stalls_Percent_2_Bucket_1: 64463
Non-critical_ROB_Stalls_Percent_2_Bucket_1: 69835
Critical_ROB_Stalls_Percent_2_Bucket_2: 51060
Non-critical_ROB_Stalls_Percent_2_Bucket_2: 41520
Critical_ROB_Stalls_Percent_2_Bucket_3: 53563
Non-critical_ROB_Stalls_Percent_2_Bucket_3: 15627
Critical_ROB_Stalls_Percent_2_Bucket_4: 35518
Non-critical_ROB_Stalls_Percent_2_Bucket_4: 8391
Critical_ROB_Stalls_Percent_2_Bucket_5: 40871
Non-critical_ROB_Stalls_Percent_2_Bucket_5: 6343
Critical_ROB_Stalls_Percent_2_Bucket_6: 83969
Non-critical_ROB_Stalls_Percent_2_Bucket_6: 18185
Critical_ROB_Stalls_Percent_3_Bucket_0: 65790
Non-critical_ROB_Stalls_Percent_3_Bucket_0: 100416
Critical_ROB_Stalls_Percent_3_Bucket_1: 74229
Non-critical_ROB_Stalls_Percent_3_Bucket_1: 60069
Critical_ROB_Stalls_Percent_3_Bucket_2: 57678
Non-critical_ROB_Stalls_Percent_3_Bucket_2: 34902
Critical_ROB_Stalls_Percent_3_Bucket_3: 54466
Non-critical_ROB_Stalls_Percent_3_Bucket_3: 14724
Critical_ROB_Stalls_Percent_3_Bucket_4: 35781
Non-critical_ROB_Stalls_Percent_3_Bucket_4: 8128
Critical_ROB_Stalls_Percent_3_Bucket_5: 41280
Non-critical_ROB_Stalls_Percent_3_Bucket_5: 5934
Critical_ROB_Stalls_Percent_3_Bucket_6: 86740
Non-critical_ROB_Stalls_Percent_3_Bucket_6: 15414
Critical_ROB_Stalls_Percent_4_Bucket_0: 79977
Non-critical_ROB_Stalls_Percent_4_Bucket_0: 86229
Critical_ROB_Stalls_Percent_4_Bucket_1: 80767
Non-critical_ROB_Stalls_Percent_4_Bucket_1: 53531
Critical_ROB_Stalls_Percent_4_Bucket_2: 64019
Non-critical_ROB_Stalls_Percent_4_Bucket_2: 28561
Critical_ROB_Stalls_Percent_4_Bucket_3: 56034
Non-critical_ROB_Stalls_Percent_4_Bucket_3: 13156
Critical_ROB_Stalls_Percent_4_Bucket_4: 37855
Non-critical_ROB_Stalls_Percent_4_Bucket_4: 6054
Critical_ROB_Stalls_Percent_4_Bucket_5: 42293
Non-critical_ROB_Stalls_Percent_4_Bucket_5: 4921
Critical_ROB_Stalls_Percent_4_Bucket_6: 86972
Non-critical_ROB_Stalls_Percent_4_Bucket_6: 15182
Critical_ROB_Stalls_Percent_5_Bucket_0: 99080
Non-critical_ROB_Stalls_Percent_5_Bucket_0: 67126
Critical_ROB_Stalls_Percent_5_Bucket_1: 84895
Non-critical_ROB_Stalls_Percent_5_Bucket_1: 49403
Critical_ROB_Stalls_Percent_5_Bucket_2: 66408
Non-critical_ROB_Stalls_Percent_5_Bucket_2: 26172
Critical_ROB_Stalls_Percent_5_Bucket_3: 57006
Non-critical_ROB_Stalls_Percent_5_Bucket_3: 12184
Critical_ROB_Stalls_Percent_5_Bucket_4: 38311
Non-critical_ROB_Stalls_Percent_5_Bucket_4: 5598
Critical_ROB_Stalls_Percent_5_Bucket_5: 43410
Non-critical_ROB_Stalls_Percent_5_Bucket_5: 3804
Critical_ROB_Stalls_Percent_5_Bucket_6: 90798
Non-critical_ROB_Stalls_Percent_5_Bucket_6: 11356
Critical_ROB_Stalls_Percent_6_Bucket_0: 114015
Non-critical_ROB_Stalls_Percent_6_Bucket_0: 52191
Critical_ROB_Stalls_Percent_6_Bucket_1: 92386
Non-critical_ROB_Stalls_Percent_6_Bucket_1: 41912
Critical_ROB_Stalls_Percent_6_Bucket_2: 70206
Non-critical_ROB_Stalls_Percent_6_Bucket_2: 22374
Critical_ROB_Stalls_Percent_6_Bucket_3: 58885
Non-critical_ROB_Stalls_Percent_6_Bucket_3: 10305
Critical_ROB_Stalls_Percent_6_Bucket_4: 39529
Non-critical_ROB_Stalls_Percent_6_Bucket_4: 4380
Critical_ROB_Stalls_Percent_6_Bucket_5: 43706
Non-critical_ROB_Stalls_Percent_6_Bucket_5: 3508
Critical_ROB_Stalls_Percent_6_Bucket_6: 93340
Non-critical_ROB_Stalls_Percent_6_Bucket_6: 8814
Critical_ROB_Stalls_Percent_7_Bucket_0: 126777
Non-critical_ROB_Stalls_Percent_7_Bucket_0: 39429
Critical_ROB_Stalls_Percent_7_Bucket_1: 100393
Non-critical_ROB_Stalls_Percent_7_Bucket_1: 33905
Critical_ROB_Stalls_Percent_7_Bucket_2: 75192
Non-critical_ROB_Stalls_Percent_7_Bucket_2: 17388
Critical_ROB_Stalls_Percent_7_Bucket_3: 61235
Non-critical_ROB_Stalls_Percent_7_Bucket_3: 7955
Critical_ROB_Stalls_Percent_7_Bucket_4: 40488
Non-critical_ROB_Stalls_Percent_7_Bucket_4: 3421
Critical_ROB_Stalls_Percent_7_Bucket_5: 44165
Non-critical_ROB_Stalls_Percent_7_Bucket_5: 3049
Critical_ROB_Stalls_Percent_7_Bucket_6: 95631
Non-critical_ROB_Stalls_Percent_7_Bucket_6: 6523
Critical_ROB_Stalls_Percent_8_Bucket_0: 139306
Non-critical_ROB_Stalls_Percent_8_Bucket_0: 26900
Critical_ROB_Stalls_Percent_8_Bucket_1: 109585
Non-critical_ROB_Stalls_Percent_8_Bucket_1: 24713
Critical_ROB_Stalls_Percent_8_Bucket_2: 79594
Non-critical_ROB_Stalls_Percent_8_Bucket_2: 12986
Critical_ROB_Stalls_Percent_8_Bucket_3: 64153
Non-critical_ROB_Stalls_Percent_8_Bucket_3: 5037
Critical_ROB_Stalls_Percent_8_Bucket_4: 41789
Non-critical_ROB_Stalls_Percent_8_Bucket_4: 2120
Critical_ROB_Stalls_Percent_8_Bucket_5: 44817
Non-critical_ROB_Stalls_Percent_8_Bucket_5: 2397
Critical_ROB_Stalls_Percent_8_Bucket_6: 96598
Non-critical_ROB_Stalls_Percent_8_Bucket_6: 5556
Average ROB occupancy Load Stall Begin: 137.546
Average ROB occupancy Load Stall End: 146.285
Min ROB occupancy Load Stall Begin: 1
Max ROB occupancy Load Stall Begin: 351
Min ROB occupancy Load Stall End: 1
Max ROB occupancy Load Stall End: 352
Average ROB occupancy Critical Load Stall Begin: 215.736
Average ROB occupancy Critical Load Stall End: 222.691
Min ROB occupancy Critical Load Stall Begin: 7
Max ROB occupancy Critical Load Stall Begin: 351
Min ROB occupancy Critical Load Stall End: 7
Max ROB occupancy Critical Load Stall End: 352
 ROB Load Stall Begin Bucket Count 0: 199377
 ROB Load Stall End Bucket Count 0: 166206
 ROB Critical Load Stall Begin Bucket Count 0: 10183
 ROB Critical Load Stall End Bucket Count 0: 6993
 ROB Load Stall Begin Bucket Count 1: 129502
 ROB Load Stall End Bucket Count 1: 134298
 ROB Critical Load Stall Begin Bucket Count 1: 30769
 ROB Critical Load Stall End Bucket Count 1: 26362
 ROB Load Stall Begin Bucket Count 2: 86237
 ROB Load Stall End Bucket Count 2: 92580
 ROB Critical Load Stall Begin Bucket Count 2: 36664
 ROB Critical Load Stall End Bucket Count 2: 34800
 ROB Load Stall Begin Bucket Count 3: 58984
 ROB Load Stall End Bucket Count 3: 69190
 ROB Critical Load Stall Begin Bucket Count 3: 41726
 ROB Critical Load Stall End Bucket Count 3: 45901
 ROB Load Stall Begin Bucket Count 4: 40841
 ROB Load Stall End Bucket Count 4: 43909
 ROB Critical Load Stall Begin Bucket Count 4: 33167
 ROB Critical Load Stall End Bucket Count 4: 33915
 ROB Load Stall Begin Bucket Count 5: 45506
 ROB Load Stall End Bucket Count 5: 47214
 ROB Critical Load Stall Begin Bucket Count 5: 34345
 ROB Critical Load Stall End Bucket Count 5: 35841
 ROB Load Stall Begin Bucket Count 6: 95104
 ROB Load Stall End Bucket Count 6: 102154
 ROB Critical Load Stall Begin Bucket Count 6: 71975
 ROB Critical Load Stall End Bucket Count 6: 75017
PIST Tag Read Accesses: 303370
PIST Read Accesses: 151685
PIST Tag Write Accesses: 303370
PIST Write Accesses: 151685
Criticality detector called times: 217955
Max global_stall_cycles_count: 524433
Threshold Modified: 1 times, factor: -1
ITLB TOTAL     ACCESS:    9954889  HIT:    9530355  MISS:     424534  HIT %:    95.7354  MISS %:    4.26458   MPKI: 8.49068
ITLB LOAD TRANSLATION ACCESS:    8272146  HIT:    8262612  MISS:       9534  HIT %:    99.8847  MISS %:   0.115254   MPKI: 0.19068
ITLB TRANSLATION FROM L1D PREFETCHER ACCESS:    1682743  HIT:    1267743  MISS:     415000  HIT %:    75.3379  MISS %:    24.6621   MPKI: 8.3
ITLB PREFETCH  REQUESTED:          0  ISSUED:          0  USEFUL:     367648  USELESS:      47345
ITLB USEFUL LOAD PREFETCHES:     367648 PREFETCH ISSUED TO LOWER LEVEL:          0  ACCURACY: inf
ITLB TIMELY PREFETCHES:     367648 LATE PREFETCHES: 304 DROPPED PREFETCHES: 90
ITLB PREFETCHES SAME FILL-ORIGIN LEVEL: 0 DIFFERENT FILL-ORIGIN LEVEL: 0
ITLB AVERAGE MISS LATENCY: 53942.3 cycles
ITLB RQ	ACCESS:   14028697	FORWARD:          0	MERGED:    4028699	TO_CACHE:    9999998

DTLB TOTAL     ACCESS:   10560729  HIT:   10118244  MISS:     442485  HIT %:    95.8101  MISS %:    4.18991   MPKI: 8.8497
DTLB LOAD TRANSLATION ACCESS:   10560729  HIT:   10118244  MISS:     442485  HIT %:    95.8101  MISS %:    4.18991   MPKI: 8.8497
DTLB PREFETCH  REQUESTED:          0  ISSUED:          0  USEFUL:          0  USELESS:          0
DTLB USEFUL LOAD PREFETCHES:          0 PREFETCH ISSUED TO LOWER LEVEL:          0  ACCURACY: -nan
DTLB TIMELY PREFETCHES:          0 LATE PREFETCHES: 0 DROPPED PREFETCHES: 0
DTLB PREFETCHES SAME FILL-ORIGIN LEVEL: 0 DIFFERENT FILL-ORIGIN LEVEL: 0
DTLB AVERAGE MISS LATENCY: 24.2838 cycles
DTLB RQ	ACCESS:   15319619	FORWARD:          0	MERGED:    4676696	TO_CACHE:   10642923

STLB TOTAL     ACCESS:    1511479  HIT:    1445364  MISS:      66115  HIT %:    95.6258  MISS %:    4.37419   MPKI: 1.3223
STLB LOAD TRANSLATION ACCESS:     451715  HIT:     386592  MISS:      65123  HIT %:    85.5832  MISS %:    14.4168   MPKI: 1.30246
STLB TRANSLATION FROM L1D PREFETCHER ACCESS:    1059764  HIT:    1058772  MISS:        992  HIT %:    99.9064  MISS %:  0.0936057   MPKI: 0.01984
STLB PREFETCH  REQUESTED:          0  ISSUED:          0  USEFUL:        780  USELESS:        230
STLB USEFUL LOAD PREFETCHES:        780 PREFETCH ISSUED TO LOWER LEVEL:          0  ACCURACY: inf
STLB TIMELY PREFETCHES:        780 LATE PREFETCHES: 0 DROPPED PREFETCHES: 90
STLB PREFETCHES SAME FILL-ORIGIN LEVEL: 0 DIFFERENT FILL-ORIGIN LEVEL: 0
STLB AVERAGE MISS LATENCY: 106.844 cycles
STLB RQ	ACCESS:    1582165	FORWARD:          0	MERGED:      70595	TO_CACHE:    1511570

STLB Hit, L1D data hit: 0
STLB Hit, L2C data hit: 0
STLB Hit, LLC data hit: 0
STLB Hit, LLC data miss: 0
STLB STLB hints to L2: 0
L1D TOTAL     ACCESS:   13653511  HIT:   11736396  MISS:    1917115  HIT %:    85.9588  MISS %:    14.0412   MPKI: 38.3423
L1D LOAD      ACCESS:    7282741  HIT:    6653842  MISS:     628899  HIT %:    91.3645  MISS %:    8.63547   MPKI: 12.578
L1D RFO       ACCESS:    5725727  HIT:    4811248  MISS:     914479  HIT %:    84.0286  MISS %:    15.9714   MPKI: 18.2896
L1D PREFETCH  ACCESS:     645043  HIT:     271306  MISS:     373737  HIT %:    42.0601  MISS %:    57.9399   MPKI: 7.47474
L1D PREFETCH  REQUESTED:    1430124  ISSUED:    1430123  USEFUL:     251191  USELESS:     122544
L1D USEFUL LOAD PREFETCHES:     251191 PREFETCH ISSUED TO LOWER LEVEL:     426028  ACCURACY: 58.9611
L1D TIMELY PREFETCHES:     251191 LATE PREFETCHES: 52285 DROPPED PREFETCHES: 0
L1D PREFETCHES SAME FILL-ORIGIN LEVEL: 426028 DIFFERENT FILL-ORIGIN LEVEL: 0
L1D AVERAGE MISS LATENCY: 2.02944e+06 cycles
L1D RQ	ACCESS:   10701846	FORWARD:          0	MERGED:    3275780	TO_CACHE:    7313545
L1D WQ	ACCESS:    8106889	FORWARD:     112534	MERGED:     100815	TO_CACHE:    8006074
L1D PQ	ACCESS:     715068	FORWARD:          0	MERGED:          0	TO_CACHE:     715055

L1D UNIQUE REGIONS ACCESSED: 0
L1D REGIONS CONFLICTS: 0
L1D Cross Page Prefetch Requests: 0
L1D Same Page Prefetch Requests: 1398824
L1D ROI Sum of L1D PQ occupancy: 10604138
L1D PREFETCHES PUSHED FROM L2C: 0
L1I TOTAL     ACCESS:   13961674  HIT:   11181831  MISS:    2779843  HIT %:    80.0895  MISS %:    19.9105   MPKI: 55.5969
L1I LOAD      ACCESS:    9623516  HIT:    9605446  MISS:      18070  HIT %:    99.8122  MISS %:   0.187769   MPKI: 0.3614
L1I PREFETCH  ACCESS:    4338158  HIT:    1576385  MISS:    2761773  HIT %:    36.3377  MISS %:    63.6623   MPKI: 55.2355
L1I PREFETCH  REQUESTED:    4572628  ISSUED:    4565007  USEFUL:    2312744  USELESS:     449064
L1I USEFUL LOAD PREFETCHES:    2312744 PREFETCH ISSUED TO LOWER LEVEL:    2767546  ACCURACY: 83.5666
L1I TIMELY PREFETCHES:    2312744 LATE PREFETCHES: 5512 DROPPED PREFETCHES: 157
L1I PREFETCHES SAME FILL-ORIGIN LEVEL: 2767546 DIFFERENT FILL-ORIGIN LEVEL: 0
L1I AVERAGE MISS LATENCY: 140740 cycles
L1I RQ	ACCESS:   13974249	FORWARD:          0	MERGED:    4346738	TO_CACHE:    9627511
L1I PQ	ACCESS:    4565007	FORWARD:          0	MERGED:     163821	TO_CACHE:    4401186

BTB TOTAL     ACCESS:    5496535  HIT:    5258217  MISS:     238318  HIT %:    95.6642  MISS %:    4.33579   MPKI: 4.76636
BTB BRANCH_DIRECT_JUMP	ACCESS:     462382  HIT:     460596  MISS:       1786
BTB BRANCH_INDIRECT	ACCESS:      45460  HIT:      45289  MISS:        171
BTB BRANCH_CONDITIONAL	ACCESS:    3246751  HIT:    3240930  MISS:       5821
BTB BRANCH_DIRECT_CALL	ACCESS:     666239  HIT:     662428  MISS:       3811
BTB BRANCH_INDIRECT_CALL	ACCESS:     204728  HIT:     179061  MISS:      25667
BTB BRANCH_RETURN	ACCESS:     870975  HIT:     669913  MISS:     201062
BTB BRANCH_OTHER ACCESS:          0  HIT:          0  MISS:          0

L2C TOTAL     ACCESS:    7581878  HIT:    5506214  MISS:    2075664  HIT %:    72.6234  MISS %:    27.3766   MPKI: 41.5133
L2C LOAD      ACCESS:     589161  HIT:     230632  MISS:     358529  HIT %:    39.1458  MISS %:    60.8542   MPKI: 7.17058
L2C DATA LOAD MPKI: 7.08164
L2C INSTRUCTION LOAD MPKI: 0.08894
L2C RFO       ACCESS:     914468  HIT:      33557  MISS:     880911  HIT %:    3.66957  MISS %:    96.3304   MPKI: 17.6182
L2C PREFETCH  ACCESS:    4822364  HIT:    4064252  MISS:     758112  HIT %:    84.2792  MISS %:    15.7208   MPKI: 15.1622
L2C DATA PREFETCH MPKI: 12.3174
L2C INSTRUCTION PREFETCH MPKI: 2.84482
L2C WRITEBACK ACCESS:    1163064  HIT:    1116553  MISS:      46511  HIT %:     96.001  MISS %:    3.99901   MPKI: 0.93022
L2C LOAD TRANSLATION ACCESS:      91167  HIT:      60638  MISS:      30529  HIT %:    66.5131  MISS %:    33.4869   MPKI: 0.61058
L2C TRANSLATION FROM L1D PREFETCHER ACCESS:       1654  HIT:        582  MISS:       1072  HIT %:    35.1874  MISS %:    64.8126   MPKI: 0.02144
L2C PREFETCH  REQUESTED:    3442657  ISSUED:    3441696  USEFUL:      75574  USELESS:     683500
L2C USEFUL LOAD PREFETCHES:      75574 PREFETCH ISSUED TO LOWER LEVEL:     767219  ACCURACY: 9.85038
L2C TIMELY PREFETCHES:      75574 LATE PREFETCHES: 9108 DROPPED PREFETCHES: 0
L2C PREFETCHES SAME FILL-ORIGIN LEVEL: 459134 DIFFERENT FILL-ORIGIN LEVEL: 0
L2C AVERAGE MISS LATENCY: 188.978 cycles
L2C RQ	ACCESS:    1596465	FORWARD:          0	MERGED:          0	TO_CACHE:    1596449
L2C WQ	ACCESS:    1163064	FORWARD:         17	MERGED:          0	TO_CACHE:    1163064
L2C PQ	ACCESS:    6635013	FORWARD:          0	MERGED:    1595796	TO_CACHE:    5039216

L2C Instructions Evicting Data 132327
L2C Translations Evicting Data 28778
L2C Data Evicting Data 1694669
L2C Instructions Evicting Instructions 12032
L2C Translations Evicting Instructions 2386
L2C Data Evicting Instructions 127964
L2C Instructions Evicting Translations 2329
L2C Translations Evicting Translations 437
L2C Data Evicting Translations 28231
L2C Dense regions hint from L2: 0
PSCL5 TOTAL     ACCESS:      66205  HIT:      66205  MISS:          0  HIT %:        100  MISS %:          0   MPKI: 0
PSCL5 LOAD TRANSLATION ACCESS:      65123  HIT:      65123  MISS:          0  HIT %:        100  MISS %:          0   MPKI: 0
PSCL5 TRANSLATION FROM L1D PREFETCHER ACCESS:       1082  HIT:       1082  MISS:          0  HIT %:        100  MISS %:          0   MPKI: 0
PSCL5 PREFETCH  REQUESTED:          0  ISSUED:          0  USEFUL:          0  USELESS:          0
PSCL5 USEFUL LOAD PREFETCHES:          0 PREFETCH ISSUED TO LOWER LEVEL:          0  ACCURACY: -nan
PSCL5 TIMELY PREFETCHES:          0 LATE PREFETCHES: 0 DROPPED PREFETCHES: 0
PSCL5 PREFETCHES SAME FILL-ORIGIN LEVEL: 0 DIFFERENT FILL-ORIGIN LEVEL: 0

PSCL4 TOTAL     ACCESS:      65077  HIT:      64960  MISS:        117  HIT %:    99.8202  MISS %:   0.179787   MPKI: 0.00234
PSCL4 LOAD TRANSLATION ACCESS:      64077  HIT:      63960  MISS:        117  HIT %:    99.8174  MISS %:   0.182593   MPKI: 0.00234
PSCL4 TRANSLATION FROM L1D PREFETCHER ACCESS:       1000  HIT:       1000  MISS:          0  HIT %:        100  MISS %:          0   MPKI: 0
PSCL4 PREFETCH  REQUESTED:          0  ISSUED:          0  USEFUL:          0  USELESS:          0
PSCL4 USEFUL LOAD PREFETCHES:          0 PREFETCH ISSUED TO LOWER LEVEL:          0  ACCURACY: -nan
PSCL4 TIMELY PREFETCHES:          0 LATE PREFETCHES: 0 DROPPED PREFETCHES: 0
PSCL4 PREFETCHES SAME FILL-ORIGIN LEVEL: 0 DIFFERENT FILL-ORIGIN LEVEL: 0

PSCL3 TOTAL     ACCESS:      65774  HIT:      65295  MISS:        479  HIT %:    99.2717  MISS %:   0.728251   MPKI: 0.00958
PSCL3 LOAD TRANSLATION ACCESS:      64832  HIT:      64353  MISS:        479  HIT %:    99.2612  MISS %:   0.738833   MPKI: 0.00958
PSCL3 TRANSLATION FROM L1D PREFETCHER ACCESS:        942  HIT:        942  MISS:          0  HIT %:        100  MISS %:          0   MPKI: 0
PSCL3 PREFETCH  REQUESTED:          0  ISSUED:          0  USEFUL:          0  USELESS:          0
PSCL3 USEFUL LOAD PREFETCHES:          0 PREFETCH ISSUED TO LOWER LEVEL:          0  ACCURACY: -nan
PSCL3 TIMELY PREFETCHES:          0 LATE PREFETCHES: 0 DROPPED PREFETCHES: 0
PSCL3 PREFETCHES SAME FILL-ORIGIN LEVEL: 0 DIFFERENT FILL-ORIGIN LEVEL: 0

PSCL2 TOTAL     ACCESS:      66145  HIT:      40160  MISS:      25985  HIT %:    60.7151  MISS %:    39.2849   MPKI: 0.5197
PSCL2 LOAD TRANSLATION ACCESS:      65481  HIT:      39496  MISS:      25985  HIT %:    60.3167  MISS %:    39.6833   MPKI: 0.5197
PSCL2 TRANSLATION FROM L1D PREFETCHER ACCESS:        664  HIT:        664  MISS:          0  HIT %:        100  MISS %:          0   MPKI: 0
PSCL2 PREFETCH  REQUESTED:          0  ISSUED:          0  USEFUL:          0  USELESS:          0
PSCL2 USEFUL LOAD PREFETCHES:          0 PREFETCH ISSUED TO LOWER LEVEL:          0  ACCURACY: -nan
PSCL2 TIMELY PREFETCHES:          0 LATE PREFETCHES: 0 DROPPED PREFETCHES: 0
PSCL2 PREFETCHES SAME FILL-ORIGIN LEVEL: 0 DIFFERENT FILL-ORIGIN LEVEL: 0

LLC TOTAL     ACCESS:    3128888  HIT:    1701677  MISS:    1427211  HIT %:     54.386  MISS %:     45.614   MPKI: 28.5442
LLC LOAD      ACCESS:     350816  HIT:     179163  MISS:     171653  HIT %:    51.0704  MISS %:    48.9296   MPKI: 3.43306
LLC RFO       ACCESS:     879513  HIT:     136655  MISS:     742858  HIT %:    15.5376  MISS %:    84.4624   MPKI: 14.8572
LLC PREFETCH  ACCESS:     767219  HIT:     353618  MISS:     413601  HIT %:    46.0909  MISS %:    53.9091   MPKI: 8.27202
LLC WRITEBACK ACCESS:    1099739  HIT:    1014137  MISS:      85602  HIT %:    92.2162  MISS %:    7.78385   MPKI: 1.71204
LLC LOAD TRANSLATION ACCESS:      30529  HIT:      17577  MISS:      12952  HIT %:    57.5748  MISS %:    42.4252   MPKI: 0.25904
LLC TRANSLATION FROM L1D PREFETCHER ACCESS:       1072  HIT:        527  MISS:        545  HIT %:    49.1604  MISS %:    50.8396   MPKI: 0.0109
LLC PREFETCH  REQUESTED:          0  ISSUED:          0  USEFUL:       7822  USELESS:     405398
LLC USEFUL LOAD PREFETCHES:       7822 PREFETCH ISSUED TO LOWER LEVEL:     413601  ACCURACY: 1.89119
LLC TIMELY PREFETCHES:       7822 LATE PREFETCHES: 0 DROPPED PREFETCHES: 0
LLC PREFETCHES SAME FILL-ORIGIN LEVEL: 0 DIFFERENT FILL-ORIGIN LEVEL: 0
LLC AVERAGE MISS LATENCY: 230.869 cycles
LLC RQ	ACCESS:    1261932	FORWARD:          0	MERGED:          0	TO_CACHE:    1261929
LLC WQ	ACCESS:    1099739	FORWARD:          4	MERGED:          0	TO_CACHE:    1099739
LLC PQ	ACCESS:     767219	FORWARD:          0	MERGED:          0	TO_CACHE:     767218

LLC Dense regions hint to LLC: 0

RAW hits: 1282099
Loads Generated: 11983945
Loads sent to L1D: 10701846
Stores Generated: 8106877
Stores sent to L1D: 8106889
Major fault: 0 Minor fault: 25901
Allocated PAGES: 25901
I-Shadow cache 408 bytes
Touched + WorthPF tables 6144 bytes 
MMA filter 174 bytes 
FNL filter 272 bytes 
TOTAL PREFETCHER STORAGE SIZE: 25174 bytes
CPU 0 L1I next line prefetcher final stats

stream: 
stream:times selected: 3673502
stream:pref_filled: 148454
stream:pref_useful: 26682
stream:pref_late: 7009
stream:misses: 32359
stream:misses_by_poll: 0

CS: 
CS:times selected: 3196391
CS:pref_filled: 568659
CS:pref_useful: 548716
CS:pref_late: 44879
CS:misses: 54505
CS:misses_by_poll: 449

CPLX: 
CPLX:times selected: 471551
CPLX:pref_filled: 31654
CPLX:pref_useful: 2097
CPLX:pref_late: 477
CPLX:misses: 99874
CPLX:misses_by_poll: 8

NL_L1: 
NL:times selected: 2690
NL:pref_filled: 902
NL:pref_useful: 29
NL:pref_late: 5
NL:misses: 1080
NL:misses_by_poll: 0

total selections: 7344134
total_filled: 373737
total_useful: 251191
total_late: 55633
total_polluted: 457
total_misses_after_warmup: 659703
conflicts: 2337158
Degree Incremented Times: 116580
Degree Decremented Times: 173459

L1 IP Table Write Accesses: 4788475
L1 IP Table Read Accesses: 2451317
L1 RST Write Accesses: 1812018
L1 RST Read Accesses: 3624036
L1 CSPT Write Accesses: 1812018
L1 CSPT Read Accesses: 2142840
L1 RR Filter Tag Write Accesses: 715069
L1 RR Filter Tag Read Accesses: 191435747
L1 IP Table Tag Write Accesses: 7313545
L1 IP Table Tag Read Accesses: 7313545
L1 RST Tag Write Accesses: 0
L1 RST Tag Read Accesses: 16369507
L1 RR Filter Write Accesses: 0
L1 RR Filter Read Accesses: 6226333
test: 286591
L2 IP Table Read Accesses: 3955595
L2 IP Table Write Accesses: 6916492
L2 IP Table Tag Read Accesses: 3558582
L2 IP Table Tag Write Accesses: 3558582

DRAM Statistics
 CHANNEL 0
 RQ ROW_BUFFER_HIT:     407227  ROW_BUFFER_MISS:     934312
 DBUS_CONGESTED:        455
 WQ ROW_BUFFER_HIT:     257932  ROW_BUFFER_MISS:     627651  FULL:        740

 AVG_CONGESTED_CYCLE: 3
 All warmup complete: 2
Channel 0 Bank busy for read cycles: 0
Channel 0 Bank busy for write cycles: 0
Channel 0
Rank 0
0banks busy for read cycles: 22968712
0banks busy for write cycles: 36547
1banks busy for read cycles: 16242917
1banks busy for write cycles: 5038683
2banks busy for read cycles: 12956748
2banks busy for write cycles: 3457846
3banks busy for read cycles: 7571864
3banks busy for write cycles: 2952524
4banks busy for read cycles: 6484440
4banks busy for write cycles: 2552440
5banks busy for read cycles: 2159372
5banks busy for write cycles: 2204637
6banks busy for read cycles: 1645585
6banks busy for write cycles: 2012727
7banks busy for read cycles: 1447531
7banks busy for write cycles: 2639938
8banks busy for read cycles: 5209802
8banks busy for write cycles: 12681608

CPU 0 Branch Prediction Accuracy: 99.2186% MPKI: 1.3219 Average ROB Occupancy at Mispredict: 135.586
Branch types
NOT_BRANCH: 41540709 83.0814%
BRANCH_DIRECT_JUMP: 462382 0.924764%
BRANCH_INDIRECT: 45460 0.09092%
BRANCH_CONDITIONAL: 6209260 12.4185%
BRANCH_DIRECT_CALL: 666239 1.33248%
BRANCH_INDIRECT_CALL: 204728 0.409456%
BRANCH_RETURN: 870975 1.74195%
BRANCH_OTHER: 0 0%

DRAM PAGES: 1048576
Allocated PAGES: 25901
