
*** ChampSim Multicore Out-of-Order Simulator ***

Warmup Instructions: 50000000
Simulation Instructions: 50000000
Number of CPUs: 1
LLC sets: 2048
LLC ways: 16
Off-chip DRAM Size: 4096 MB Channels: 1 Width: 64-bit Data Rate: 6400 MT/s
CPU 0 runs ../../IPC-traces//server_010.champsimtrace.xz
.xz
NUM_OF_IPS_IN_CRITICAL_IP_TRAINING: 64
NUM_OF_CRITICAL_IP_TRAINING_TABLE_WAYS: 2
NUM_OF_CRITICAL_IP_TRAINING_TABLE_SETS: 32
WOBBLY_CRITICAL_IP_CACHE_SETS: 32
WOBBLY_CRITICAL_IP_CACHE_WAYS: 4
BTB has LRU replacement policy
ITLB has LRU replacement policy
DTLB has LRU replacement policy
STLB has LRU replacement policy
CPU 0 L1I next line prefetcher
L1I has LRU replacement policy
L1D has LRU replacement policy
Bingo PHT WAYS: 16 and PHT_SIZE: 16384
Initialize SRRIP state for L2C
Initialize DRRIP state for LLC
Heartbeat CPU 0 instructions: 10000001 cycles: 2763730 heartbeat IPC: 3.6183 cumulative IPC: 3.6183 (Simulation time: 0 hr 4 min 25 sec) 
Heartbeat CPU 0 instructions: 20000003 cycles: 5519403 heartbeat IPC: 3.62888 cumulative IPC: 3.62358 (Simulation time: 0 hr 8 min 24 sec) 
Heartbeat CPU 0 instructions: 30000001 cycles: 8273845 heartbeat IPC: 3.6305 cumulative IPC: 3.62588 (Simulation time: 0 hr 12 min 8 sec) 
Heartbeat CPU 0 instructions: 40000000 cycles: 11029059 heartbeat IPC: 3.62948 cumulative IPC: 3.62678 (Simulation time: 0 hr 15 min 8 sec) 
Heartbeat CPU 0 instructions: 50000003 cycles: 13785590 heartbeat IPC: 3.62775 cumulative IPC: 3.62698 (Simulation time: 0 hr 18 min 7 sec) 

Warmup complete CPU 0 instructions: 50000003 cycles: 13785590 (Simulation time: 0 hr 18 min 7 sec) 

% increase in all ip prefetch 336.862
% increase in all ip prefetch 1.29718
Heartbeat CPU 0 instructions: 60000001 cycles: 27402358 heartbeat IPC: 0.734389 cumulative IPC: 0.734389 (Simulation time: 0 hr 21 min 26 sec) 
Heartbeat CPU 0 instructions: 70000000 cycles: 41064145 heartbeat IPC: 0.731969 cumulative IPC: 0.733177 (Simulation time: 0 hr 24 min 30 sec) 
Heartbeat CPU 0 instructions: 80000003 cycles: 54721813 heartbeat IPC: 0.73219 cumulative IPC: 0.732847 (Simulation time: 0 hr 27 min 39 sec) 
Heartbeat CPU 0 instructions: 90000002 cycles: 68144602 heartbeat IPC: 0.745002 cumulative IPC: 0.735849 (Simulation time: 0 hr 30 min 44 sec) 
Heartbeat CPU 0 instructions: 100000000 cycles: 95546454 heartbeat IPC: 0.364939 cumulative IPC: 0.611539 (Simulation time: 0 hr 34 min 26 sec) 
Finished CPU 0 instructions: 50000001 cycles: 81760885 cumulative IPC: 0.611539 (Simulation time: 0 hr 34 min 26 sec) 

ChampSim completed all CPUs

Region of Interest Statistics

CPU 0 cumulative IPC: 0.611539 instructions: 50000001 cycles: 81760885

CPU 0 Average Load ROB stall cycles: 4.62205e+06
CPU 0 Fraction of times ROB stalled by Loads: 9.81903
CPU 0 Percentage of Load stall cycles in Total stall cycles: 5.17715e+07
 Total stall cycles: 45981388
 Total load stall cycles: 23805273699629
CPU 0 NUM of IPS identified critical: 10
CPU 0 Num of Load IPs stalling ROB: 10182
Threshold modification factor: -1
Max PIST entries: 64
Min PIST entries: 0
Avg PIST entries: 30.48
Trouble in retire width: 0.786219
MaC = Marked as critical.
lt_50_percent_before_Mac: 8
gt_90_percent_before_Mac: 0
gt_75_percent_before_Mac: 0
gt_50_percent_before_Mac: 2
stall_proportion_bin_same_before_after: 0
stall_proportion_bin_lower_before_after: 0
stall_proportion_bin_upper_before_after: 0
average_stall_proportion_before: 0.12924
average_stall_proportion_after: 0.174064
Critical IP stalls, total frequency: 26277
Non-critical IP stalls, total frequency: 454184
Critical_IP_ROB_Stalls_Bucket_0: 9220
Non-critical_IP_ROB_Stalls_Bucket_0: 327212
Critical_IP_ROB_Stalls_Bucket_1: 10642
Non-critical_IP_ROB_Stalls_Bucket_1: 92061
Critical_IP_ROB_Stalls_Bucket_2: 2600
Non-critical_IP_ROB_Stalls_Bucket_2: 41329
Critical_IP_ROB_Stalls_Bucket_3: 488
Non-critical_IP_ROB_Stalls_Bucket_3: 8678
Critical_IP_ROB_Stalls_Bucket_4: 455
Non-critical_IP_ROB_Stalls_Bucket_4: 4561
Critical_IP_ROB_Stalls_Bucket_5: 893
Non-critical_IP_ROB_Stalls_Bucket_5: 2208
Critical_IP_ROB_Stalls_Bucket_6: 1979
Non-critical_IP_ROB_Stalls_Bucket_6: 3391
0 => IPs accounting for >50 percent of stalls, 1 => 55, 2 => 60, 3 => 65 and so on till 90.
percent50: 50.0193 num IPs:160
percent55: 55.0188 num IPs:233
percent60: 60.0065 num IPs:333
percent65: 65.0155 num IPs:476
percent70: 70.0212 num IPs:676
percent75: 75.0052 num IPs:952
percent80: 80.0092 num IPs:1309
percent85: 85.0056 num IPs:1768
percent90: 90.0006 num IPs:2417
Critical_ROB_Stalls_Percent_0_Bucket_0: 155843
Non-critical_ROB_Stalls_Percent_0_Bucket_0: 180589
Critical_ROB_Stalls_Percent_0_Bucket_1: 48375
Non-critical_ROB_Stalls_Percent_0_Bucket_1: 54328
Critical_ROB_Stalls_Percent_0_Bucket_2: 28486
Non-critical_ROB_Stalls_Percent_0_Bucket_2: 15443
Critical_ROB_Stalls_Percent_0_Bucket_3: 2543
Non-critical_ROB_Stalls_Percent_0_Bucket_3: 6623
Critical_ROB_Stalls_Percent_0_Bucket_4: 1426
Non-critical_ROB_Stalls_Percent_0_Bucket_4: 3590
Critical_ROB_Stalls_Percent_0_Bucket_5: 1063
Non-critical_ROB_Stalls_Percent_0_Bucket_5: 2038
Critical_ROB_Stalls_Percent_0_Bucket_6: 2587
Non-critical_ROB_Stalls_Percent_0_Bucket_6: 2783
Critical_ROB_Stalls_Percent_1_Bucket_0: 170320
Non-critical_ROB_Stalls_Percent_1_Bucket_0: 166112
Critical_ROB_Stalls_Percent_1_Bucket_1: 54910
Non-critical_ROB_Stalls_Percent_1_Bucket_1: 47793
Critical_ROB_Stalls_Percent_1_Bucket_2: 29966
Non-critical_ROB_Stalls_Percent_1_Bucket_2: 13963
Critical_ROB_Stalls_Percent_1_Bucket_3: 3084
Non-critical_ROB_Stalls_Percent_1_Bucket_3: 6082
Critical_ROB_Stalls_Percent_1_Bucket_4: 1882
Non-critical_ROB_Stalls_Percent_1_Bucket_4: 3134
Critical_ROB_Stalls_Percent_1_Bucket_5: 1265
Non-critical_ROB_Stalls_Percent_1_Bucket_5: 1836
Critical_ROB_Stalls_Percent_1_Bucket_6: 2917
Non-critical_ROB_Stalls_Percent_1_Bucket_6: 2453
Critical_ROB_Stalls_Percent_2_Bucket_0: 185306
Non-critical_ROB_Stalls_Percent_2_Bucket_0: 151126
Critical_ROB_Stalls_Percent_2_Bucket_1: 61002
Non-critical_ROB_Stalls_Percent_2_Bucket_1: 41701
Critical_ROB_Stalls_Percent_2_Bucket_2: 31558
Non-critical_ROB_Stalls_Percent_2_Bucket_2: 12371
Critical_ROB_Stalls_Percent_2_Bucket_3: 3596
Non-critical_ROB_Stalls_Percent_2_Bucket_3: 5570
Critical_ROB_Stalls_Percent_2_Bucket_4: 2119
Non-critical_ROB_Stalls_Percent_2_Bucket_4: 2897
Critical_ROB_Stalls_Percent_2_Bucket_5: 1577
Non-critical_ROB_Stalls_Percent_2_Bucket_5: 1524
Critical_ROB_Stalls_Percent_2_Bucket_6: 3150
Non-critical_ROB_Stalls_Percent_2_Bucket_6: 2220
Critical_ROB_Stalls_Percent_3_Bucket_0: 200944
Non-critical_ROB_Stalls_Percent_3_Bucket_0: 135488
Critical_ROB_Stalls_Percent_3_Bucket_1: 67254
Non-critical_ROB_Stalls_Percent_3_Bucket_1: 35449
Critical_ROB_Stalls_Percent_3_Bucket_2: 32660
Non-critical_ROB_Stalls_Percent_3_Bucket_2: 11269
Critical_ROB_Stalls_Percent_3_Bucket_3: 3936
Non-critical_ROB_Stalls_Percent_3_Bucket_3: 5230
Critical_ROB_Stalls_Percent_3_Bucket_4: 2376
Non-critical_ROB_Stalls_Percent_3_Bucket_4: 2640
Critical_ROB_Stalls_Percent_3_Bucket_5: 1827
Non-critical_ROB_Stalls_Percent_3_Bucket_5: 1274
Critical_ROB_Stalls_Percent_3_Bucket_6: 3377
Non-critical_ROB_Stalls_Percent_3_Bucket_6: 1993
Critical_ROB_Stalls_Percent_4_Bucket_0: 217194
Non-critical_ROB_Stalls_Percent_4_Bucket_0: 119238
Critical_ROB_Stalls_Percent_4_Bucket_1: 71672
Non-critical_ROB_Stalls_Percent_4_Bucket_1: 31031
Critical_ROB_Stalls_Percent_4_Bucket_2: 34071
Non-critical_ROB_Stalls_Percent_4_Bucket_2: 9858
Critical_ROB_Stalls_Percent_4_Bucket_3: 4761
Non-critical_ROB_Stalls_Percent_4_Bucket_3: 4405
Critical_ROB_Stalls_Percent_4_Bucket_4: 2887
Non-critical_ROB_Stalls_Percent_4_Bucket_4: 2129
Critical_ROB_Stalls_Percent_4_Bucket_5: 2025
Non-critical_ROB_Stalls_Percent_4_Bucket_5: 1076
Critical_ROB_Stalls_Percent_4_Bucket_6: 3815
Non-critical_ROB_Stalls_Percent_4_Bucket_6: 1555
Critical_ROB_Stalls_Percent_5_Bucket_0: 234865
Non-critical_ROB_Stalls_Percent_5_Bucket_0: 101567
Critical_ROB_Stalls_Percent_5_Bucket_1: 75711
Non-critical_ROB_Stalls_Percent_5_Bucket_1: 26992
Critical_ROB_Stalls_Percent_5_Bucket_2: 35221
Non-critical_ROB_Stalls_Percent_5_Bucket_2: 8708
Critical_ROB_Stalls_Percent_5_Bucket_3: 5090
Non-critical_ROB_Stalls_Percent_5_Bucket_3: 4076
Critical_ROB_Stalls_Percent_5_Bucket_4: 3165
Non-critical_ROB_Stalls_Percent_5_Bucket_4: 1851
Critical_ROB_Stalls_Percent_5_Bucket_5: 2184
Non-critical_ROB_Stalls_Percent_5_Bucket_5: 917
Critical_ROB_Stalls_Percent_5_Bucket_6: 4135
Non-critical_ROB_Stalls_Percent_5_Bucket_6: 1235
Critical_ROB_Stalls_Percent_6_Bucket_0: 253280
Non-critical_ROB_Stalls_Percent_6_Bucket_0: 83152
Critical_ROB_Stalls_Percent_6_Bucket_1: 79226
Non-critical_ROB_Stalls_Percent_6_Bucket_1: 23477
Critical_ROB_Stalls_Percent_6_Bucket_2: 36261
Non-critical_ROB_Stalls_Percent_6_Bucket_2: 7668
Critical_ROB_Stalls_Percent_6_Bucket_3: 5694
Non-critical_ROB_Stalls_Percent_6_Bucket_3: 3472
Critical_ROB_Stalls_Percent_6_Bucket_4: 3364
Non-critical_ROB_Stalls_Percent_6_Bucket_4: 1652
Critical_ROB_Stalls_Percent_6_Bucket_5: 2297
Non-critical_ROB_Stalls_Percent_6_Bucket_5: 804
Critical_ROB_Stalls_Percent_6_Bucket_6: 4292
Non-critical_ROB_Stalls_Percent_6_Bucket_6: 1078
Critical_ROB_Stalls_Percent_7_Bucket_0: 271096
Non-critical_ROB_Stalls_Percent_7_Bucket_0: 65336
Critical_ROB_Stalls_Percent_7_Bucket_1: 83365
Non-critical_ROB_Stalls_Percent_7_Bucket_1: 19338
Critical_ROB_Stalls_Percent_7_Bucket_2: 37247
Non-critical_ROB_Stalls_Percent_7_Bucket_2: 6682
Critical_ROB_Stalls_Percent_7_Bucket_3: 6204
Non-critical_ROB_Stalls_Percent_7_Bucket_3: 2962
Critical_ROB_Stalls_Percent_7_Bucket_4: 3622
Non-critical_ROB_Stalls_Percent_7_Bucket_4: 1394
Critical_ROB_Stalls_Percent_7_Bucket_5: 2437
Non-critical_ROB_Stalls_Percent_7_Bucket_5: 664
Critical_ROB_Stalls_Percent_7_Bucket_6: 4449
Non-critical_ROB_Stalls_Percent_7_Bucket_6: 921
Critical_ROB_Stalls_Percent_8_Bucket_0: 288127
Non-critical_ROB_Stalls_Percent_8_Bucket_0: 48305
Critical_ROB_Stalls_Percent_8_Bucket_1: 87773
Non-critical_ROB_Stalls_Percent_8_Bucket_1: 14930
Critical_ROB_Stalls_Percent_8_Bucket_2: 38629
Non-critical_ROB_Stalls_Percent_8_Bucket_2: 5300
Critical_ROB_Stalls_Percent_8_Bucket_3: 6749
Non-critical_ROB_Stalls_Percent_8_Bucket_3: 2417
Critical_ROB_Stalls_Percent_8_Bucket_4: 3892
Non-critical_ROB_Stalls_Percent_8_Bucket_4: 1124
Critical_ROB_Stalls_Percent_8_Bucket_5: 2591
Non-critical_ROB_Stalls_Percent_8_Bucket_5: 510
Critical_ROB_Stalls_Percent_8_Bucket_6: 4657
Non-critical_ROB_Stalls_Percent_8_Bucket_6: 713
Average ROB occupancy Load Stall Begin: 46.6964
Average ROB occupancy Load Stall End: 52.3073
Min ROB occupancy Load Stall Begin: 1
Max ROB occupancy Load Stall Begin: 351
Min ROB occupancy Load Stall End: 1
Max ROB occupancy Load Stall End: 352
Average ROB occupancy Critical Load Stall Begin: 95.813
Average ROB occupancy Critical Load Stall End: 102.018
Min ROB occupancy Critical Load Stall Begin: 7
Max ROB occupancy Critical Load Stall Begin: 351
Min ROB occupancy Critical Load Stall End: 7
Max ROB occupancy Critical Load Stall End: 352
 ROB Load Stall Begin Bucket Count 0: 359100
 ROB Load Stall End Bucket Count 0: 336432
 ROB Critical Load Stall Begin Bucket Count 0: 8309
 ROB Critical Load Stall End Bucket Count 0: 7474
 ROB Load Stall Begin Bucket Count 1: 88700
 ROB Load Stall End Bucket Count 1: 102703
 ROB Critical Load Stall Begin Bucket Count 1: 8446
 ROB Critical Load Stall End Bucket Count 1: 8779
 ROB Load Stall Begin Bucket Count 2: 39381
 ROB Load Stall End Bucket Count 2: 43929
 ROB Critical Load Stall Begin Bucket Count 2: 1383
 ROB Critical Load Stall End Bucket Count 2: 1859
 ROB Load Stall Begin Bucket Count 3: 6856
 ROB Load Stall End Bucket Count 3: 9166
 ROB Critical Load Stall Begin Bucket Count 3: 456
 ROB Critical Load Stall End Bucket Count 3: 469
 ROB Load Stall Begin Bucket Count 4: 4155
 ROB Load Stall End Bucket Count 4: 5016
 ROB Critical Load Stall Begin Bucket Count 4: 461
 ROB Critical Load Stall End Bucket Count 4: 451
 ROB Load Stall Begin Bucket Count 5: 2804
 ROB Load Stall End Bucket Count 5: 3101
 ROB Critical Load Stall Begin Bucket Count 5: 885
 ROB Critical Load Stall End Bucket Count 5: 889
 ROB Load Stall Begin Bucket Count 6: 4721
 ROB Load Stall End Bucket Count 6: 5370
 ROB Critical Load Stall Begin Bucket Count 6: 1709
 ROB Critical Load Stall End Bucket Count 6: 1728
PIST Tag Read Accesses: 259564
PIST Read Accesses: 129782
PIST Tag Write Accesses: 259564
PIST Write Accesses: 129782
Criticality detector called times: 237573
Max global_stall_cycles_count: 275969
Threshold Modified: 1 times, factor: -1
ITLB TOTAL     ACCESS:    9522646  HIT:    9309181  MISS:     213465  HIT %:    97.7583  MISS %:    2.24166   MPKI: 4.2693
ITLB LOAD TRANSLATION ACCESS:    8391109  HIT:    8330156  MISS:      60953  HIT %:    99.2736  MISS %:     0.7264   MPKI: 1.21906
ITLB TRANSLATION FROM L1D PREFETCHER ACCESS:    1131537  HIT:     979025  MISS:     152512  HIT %:    86.5217  MISS %:    13.4783   MPKI: 3.05024
ITLB PREFETCH  REQUESTED:          0  ISSUED:          0  USEFUL:     126090  USELESS:      26420
ITLB USEFUL LOAD PREFETCHES:     126090 PREFETCH ISSUED TO LOWER LEVEL:          0  ACCURACY: inf
ITLB TIMELY PREFETCHES:     126090 LATE PREFETCHES: 1029 DROPPED PREFETCHES: 10544
ITLB PREFETCHES SAME FILL-ORIGIN LEVEL: 0 DIFFERENT FILL-ORIGIN LEVEL: 0
ITLB AVERAGE MISS LATENCY: 220602 cycles
ITLB RQ	ACCESS:   12913563	FORWARD:          0	MERGED:    3351944	TO_CACHE:    9561619

DTLB TOTAL     ACCESS:   10103541  HIT:    8785161  MISS:    1318380  HIT %:    86.9513  MISS %:    13.0487   MPKI: 26.3676
DTLB LOAD TRANSLATION ACCESS:   10103541  HIT:    8785161  MISS:    1318380  HIT %:    86.9513  MISS %:    13.0487   MPKI: 26.3676
DTLB PREFETCH  REQUESTED:          0  ISSUED:          0  USEFUL:          0  USELESS:          0
DTLB USEFUL LOAD PREFETCHES:          0 PREFETCH ISSUED TO LOWER LEVEL:          0  ACCURACY: -nan
DTLB TIMELY PREFETCHES:          0 LATE PREFETCHES: 0 DROPPED PREFETCHES: 0
DTLB PREFETCHES SAME FILL-ORIGIN LEVEL: 0 DIFFERENT FILL-ORIGIN LEVEL: 0
DTLB AVERAGE MISS LATENCY: 11.6817 cycles
DTLB RQ	ACCESS:   13075539	FORWARD:          0	MERGED:    2932868	TO_CACHE:   10142671

STLB TOTAL     ACCESS:    1531845  HIT:    1424571  MISS:     107274  HIT %:    92.9971  MISS %:    7.00293   MPKI: 2.14548
STLB LOAD TRANSLATION ACCESS:    1378304  HIT:    1296441  MISS:      81863  HIT %:    94.0606  MISS %:     5.9394   MPKI: 1.63726
STLB TRANSLATION FROM L1D PREFETCHER ACCESS:     153541  HIT:     128130  MISS:      25411  HIT %:      83.45  MISS %:      16.55   MPKI: 0.50822
STLB PREFETCH  REQUESTED:          0  ISSUED:          0  USEFUL:      14768  USELESS:      10617
STLB USEFUL LOAD PREFETCHES:      14768 PREFETCH ISSUED TO LOWER LEVEL:          0  ACCURACY: inf
STLB TIMELY PREFETCHES:      14768 LATE PREFETCHES: 0 DROPPED PREFETCHES: 10544
STLB PREFETCHES SAME FILL-ORIGIN LEVEL: 0 DIFFERENT FILL-ORIGIN LEVEL: 0
STLB AVERAGE MISS LATENCY: 46.9938 cycles
STLB RQ	ACCESS:    1542388	FORWARD:          0	MERGED:          0	TO_CACHE:    1542388

STLB Hit, L1D data hit: 0
STLB Hit, L2C data hit: 0
STLB Hit, LLC data hit: 0
STLB Hit, LLC data miss: 0
STLB STLB hints to L2: 0
L1D TOTAL     ACCESS:   12944180  HIT:   11284197  MISS:    1659983  HIT %:    87.1758  MISS %:    12.8242   MPKI: 33.1997
L1D LOAD      ACCESS:    8190145  HIT:    6623143  MISS:    1567002  HIT %:    80.8672  MISS %:    19.1328   MPKI: 31.34
L1D RFO       ACCESS:    4754035  HIT:    4661054  MISS:      92981  HIT %:    98.0442  MISS %:    1.95583   MPKI: 1.85962
L1D PREFETCH  REQUESTED:          0  ISSUED:          0  USEFUL:          0  USELESS:          0
L1D USEFUL LOAD PREFETCHES:          0 PREFETCH ISSUED TO LOWER LEVEL:          0  ACCURACY: -nan
L1D TIMELY PREFETCHES:          0 LATE PREFETCHES: 0 DROPPED PREFETCHES: 0
L1D PREFETCHES SAME FILL-ORIGIN LEVEL: 0 DIFFERENT FILL-ORIGIN LEVEL: 0
L1D AVERAGE MISS LATENCY: 21.0565 cycles
L1D RQ	ACCESS:   11660039	FORWARD:          0	MERGED:    3364839	TO_CACHE:    8213308
L1D WQ	ACCESS:    4965307	FORWARD:      81892	MERGED:     103076	TO_CACHE:    4862231

L1D UNIQUE REGIONS ACCESSED: 0
L1D REGIONS CONFLICTS: 0
L1D Cross Page Prefetch Requests: 0
L1D Same Page Prefetch Requests: 0
L1D ROI Sum of L1D PQ occupancy: 0
L1D PREFETCHES PUSHED FROM L2C: 0
L1I TOTAL     ACCESS:   12767013  HIT:   10961723  MISS:    1805290  HIT %:    85.8597  MISS %:    14.1403   MPKI: 36.1058
L1I LOAD      ACCESS:   10140688  HIT:    9916389  MISS:     224299  HIT %:    97.7881  MISS %:    2.21187   MPKI: 4.48598
L1I PREFETCH  ACCESS:    2626325  HIT:    1045334  MISS:    1580991  HIT %:    39.8022  MISS %:    60.1978   MPKI: 31.6198
L1I PREFETCH  REQUESTED:    2853039  ISSUED:    2842911  USEFUL:    1047991  USELESS:     532980
L1I USEFUL LOAD PREFETCHES:    1047991 PREFETCH ISSUED TO LOWER LEVEL:    1647692  ACCURACY: 63.6036
L1I TIMELY PREFETCHES:    1047991 LATE PREFETCHES: 30405 DROPPED PREFETCHES: 25269
L1I PREFETCHES SAME FILL-ORIGIN LEVEL: 1647692 DIFFERENT FILL-ORIGIN LEVEL: 0
L1I AVERAGE MISS LATENCY: 741573 cycles
L1I RQ	ACCESS:   14597824	FORWARD:          0	MERGED:    4432910	TO_CACHE:   10164914
L1I PQ	ACCESS:    2842911	FORWARD:          0	MERGED:      94262	TO_CACHE:    2748649

BTB TOTAL     ACCESS:    5599981  HIT:    4872062  MISS:     727919  HIT %:    87.0014  MISS %:    12.9986   MPKI: 14.5584
BTB BRANCH_DIRECT_JUMP	ACCESS:     449946  HIT:     393873  MISS:      56073
BTB BRANCH_INDIRECT	ACCESS:     140210  HIT:     110632  MISS:      29578
BTB BRANCH_CONDITIONAL	ACCESS:    3238716  HIT:    3009561  MISS:     229155
BTB BRANCH_DIRECT_CALL	ACCESS:     701578  HIT:     595974  MISS:     105604
BTB BRANCH_INDIRECT_CALL	ACCESS:     168971  HIT:     157981  MISS:      10990
BTB BRANCH_RETURN	ACCESS:     900560  HIT:     604041  MISS:     296519
BTB BRANCH_OTHER ACCESS:          0  HIT:          0  MISS:          0

L2C TOTAL     ACCESS:    4172102  HIT:    3057916  MISS:    1114186  HIT %:    73.2944  MISS %:    26.7056   MPKI: 22.2837
L2C LOAD      ACCESS:    1760865  HIT:    1528178  MISS:     232687  HIT %:    86.7856  MISS %:    13.2144   MPKI: 4.65374
L2C DATA LOAD MPKI: 2.96622
L2C INSTRUCTION LOAD MPKI: 1.68752
L2C RFO       ACCESS:      92981  HIT:      48554  MISS:      44427  HIT %:    52.2193  MISS %:    47.7807   MPKI: 0.88854
L2C PREFETCH  ACCESS:    1923567  HIT:    1160102  MISS:     763465  HIT %:    60.3099  MISS %:    39.6901   MPKI: 15.2693
L2C DATA PREFETCH MPKI: 3.21178
L2C INSTRUCTION PREFETCH MPKI: 12.0575
L2C WRITEBACK ACCESS:     239274  HIT:     224585  MISS:      14689  HIT %:     93.861  MISS %:    6.13899   MPKI: 0.29378
L2C LOAD TRANSLATION ACCESS:     108209  HIT:      60130  MISS:      48079  HIT %:    55.5684  MISS %:    44.4316   MPKI: 0.96158
L2C TRANSLATION FROM L1D PREFETCHER ACCESS:      47206  HIT:      36367  MISS:      10839  HIT %:    77.0389  MISS %:    22.9611   MPKI: 0.21678
L2C PREFETCH  REQUESTED:     328445  ISSUED:     328445  USEFUL:     140259  USELESS:     635093
L2C USEFUL LOAD PREFETCHES:     140259 PREFETCH ISSUED TO LOWER LEVEL:     766698  ACCURACY: 18.2939
L2C TIMELY PREFETCHES:     140259 LATE PREFETCHES: 3233 DROPPED PREFETCHES: 0
L2C PREFETCHES SAME FILL-ORIGIN LEVEL: 163822 DIFFERENT FILL-ORIGIN LEVEL: 0
L2C AVERAGE MISS LATENCY: 39.8771 cycles
L2C RQ	ACCESS:    2009292	FORWARD:          0	MERGED:          0	TO_CACHE:    2009261
L2C WQ	ACCESS:     239274	FORWARD:         36	MERGED:          0	TO_CACHE:     239274
L2C PQ	ACCESS:    1939841	FORWARD:          0	MERGED:          0	TO_CACHE:    1939836

L2C Instructions Evicting Data 225216
L2C Translations Evicting Data 19664
L2C Data Evicting Data 116568
L2C Instructions Evicting Instructions 426037
L2C Translations Evicting Instructions 36089
L2C Data Evicting Instructions 217698
L2C Instructions Evicting Translations 35999
L2C Translations Evicting Translations 3165
L2C Data Evicting Translations 19061
L2C Dense regions hint from L2: 0
PSCL5 TOTAL     ACCESS:     117817  HIT:     117817  MISS:          0  HIT %:        100  MISS %:          0   MPKI: 0
PSCL5 LOAD TRANSLATION ACCESS:      81862  HIT:      81862  MISS:          0  HIT %:        100  MISS %:          0   MPKI: 0
PSCL5 TRANSLATION FROM L1D PREFETCHER ACCESS:      35955  HIT:      35955  MISS:          0  HIT %:        100  MISS %:          0   MPKI: 0
PSCL5 PREFETCH  REQUESTED:          0  ISSUED:          0  USEFUL:          0  USELESS:          0
PSCL5 USEFUL LOAD PREFETCHES:          0 PREFETCH ISSUED TO LOWER LEVEL:          0  ACCURACY: -nan
PSCL5 TIMELY PREFETCHES:          0 LATE PREFETCHES: 0 DROPPED PREFETCHES: 0
PSCL5 PREFETCHES SAME FILL-ORIGIN LEVEL: 0 DIFFERENT FILL-ORIGIN LEVEL: 0

PSCL4 TOTAL     ACCESS:     109549  HIT:     109239  MISS:        310  HIT %:     99.717  MISS %:   0.282978   MPKI: 0.0062
PSCL4 LOAD TRANSLATION ACCESS:      76177  HIT:      75867  MISS:        310  HIT %:    99.5931  MISS %:   0.406947   MPKI: 0.0062
PSCL4 TRANSLATION FROM L1D PREFETCHER ACCESS:      33372  HIT:      33372  MISS:          0  HIT %:        100  MISS %:          0   MPKI: 0
PSCL4 PREFETCH  REQUESTED:          0  ISSUED:          0  USEFUL:          0  USELESS:          0
PSCL4 USEFUL LOAD PREFETCHES:          0 PREFETCH ISSUED TO LOWER LEVEL:          0  ACCURACY: -nan
PSCL4 TIMELY PREFETCHES:          0 LATE PREFETCHES: 0 DROPPED PREFETCHES: 0
PSCL4 PREFETCHES SAME FILL-ORIGIN LEVEL: 0 DIFFERENT FILL-ORIGIN LEVEL: 0

PSCL3 TOTAL     ACCESS:     116017  HIT:     115159  MISS:        858  HIT %:    99.2605  MISS %:   0.739547   MPKI: 0.01716
PSCL3 LOAD TRANSLATION ACCESS:      81515  HIT:      80657  MISS:        858  HIT %:    98.9474  MISS %:    1.05257   MPKI: 0.01716
PSCL3 TRANSLATION FROM L1D PREFETCHER ACCESS:      34502  HIT:      34502  MISS:          0  HIT %:        100  MISS %:          0   MPKI: 0
PSCL3 PREFETCH  REQUESTED:          0  ISSUED:          0  USEFUL:          0  USELESS:          0
PSCL3 USEFUL LOAD PREFETCHES:          0 PREFETCH ISSUED TO LOWER LEVEL:          0  ACCURACY: -nan
PSCL3 TIMELY PREFETCHES:          0 LATE PREFETCHES: 0 DROPPED PREFETCHES: 0
PSCL3 PREFETCHES SAME FILL-ORIGIN LEVEL: 0 DIFFERENT FILL-ORIGIN LEVEL: 0

PSCL2 TOTAL     ACCESS:     110939  HIT:      82234  MISS:      28705  HIT %:    74.1254  MISS %:    25.8746   MPKI: 0.5741
PSCL2 LOAD TRANSLATION ACCESS:      85163  HIT:      56458  MISS:      28705  HIT %:     66.294  MISS %:     33.706   MPKI: 0.5741
PSCL2 TRANSLATION FROM L1D PREFETCHER ACCESS:      25776  HIT:      25776  MISS:          0  HIT %:        100  MISS %:          0   MPKI: 0
PSCL2 PREFETCH  REQUESTED:          0  ISSUED:          0  USEFUL:          0  USELESS:          0
PSCL2 USEFUL LOAD PREFETCHES:          0 PREFETCH ISSUED TO LOWER LEVEL:          0  ACCURACY: -nan
PSCL2 TIMELY PREFETCHES:          0 LATE PREFETCHES: 0 DROPPED PREFETCHES: 0
PSCL2 PREFETCHES SAME FILL-ORIGIN LEVEL: 0 DIFFERENT FILL-ORIGIN LEVEL: 0

LLC TOTAL     ACCESS:    1223517  HIT:    1156698  MISS:      66819  HIT %:    94.5388  MISS %:    5.46122   MPKI: 1.33638
LLC LOAD      ACCESS:     229460  HIT:     212595  MISS:      16865  HIT %:    92.6501  MISS %:    7.34986   MPKI: 0.3373
LLC RFO       ACCESS:      44418  HIT:      35358  MISS:       9060  HIT %:    79.6029  MISS %:    20.3971   MPKI: 0.1812
LLC PREFETCH  ACCESS:     766698  HIT:     727302  MISS:      39396  HIT %:    94.8616  MISS %:     5.1384   MPKI: 0.78792
LLC WRITEBACK ACCESS:     124023  HIT:     123501  MISS:        522  HIT %:    99.5791  MISS %:    0.42089   MPKI: 0.01044
LLC LOAD TRANSLATION ACCESS:      48079  HIT:      47121  MISS:        958  HIT %:    98.0074  MISS %:    1.99255   MPKI: 0.01916
LLC TRANSLATION FROM L1D PREFETCHER ACCESS:      10839  HIT:      10821  MISS:         18  HIT %:    99.8339  MISS %:   0.166067   MPKI: 0.00036
LLC PREFETCH  REQUESTED:          0  ISSUED:          0  USEFUL:       2897  USELESS:      35852
LLC USEFUL LOAD PREFETCHES:       2897 PREFETCH ISSUED TO LOWER LEVEL:      39396  ACCURACY: 7.35354
LLC TIMELY PREFETCHES:       2897 LATE PREFETCHES: 0 DROPPED PREFETCHES: 0
LLC PREFETCHES SAME FILL-ORIGIN LEVEL: 0 DIFFERENT FILL-ORIGIN LEVEL: 0
LLC AVERAGE MISS LATENCY: 170.984 cycles
LLC RQ	ACCESS:     332799	FORWARD:          0	MERGED:          0	TO_CACHE:     332796
LLC WQ	ACCESS:     124023	FORWARD:          3	MERGED:          0	TO_CACHE:     124023
LLC PQ	ACCESS:     766698	FORWARD:          0	MERGED:          0	TO_CACHE:     766698

LLC Dense regions hint to LLC: 0

RAW hits: 948178
Loads Generated: 12608216
Loads sent to L1D: 11660039
Stores Generated: 4965302
Stores sent to L1D: 4965307
Major fault: 0 Minor fault: 5909
Allocated PAGES: 5909
I-Shadow cache 408 bytes
Touched + WorthPF tables 6144 bytes 
MMA filter 174 bytes 
FNL filter 272 bytes 
TOTAL PREFETCHER STORAGE SIZE: 25174 bytes
CPU 0 L1I next line prefetcher final stats
[Bingo] PHT Access: 191026
[Bingo] PHT Hit PC+Addr: 90601
[Bingo] PHT Hit PC+Offs: 11375
[Bingo] PHT Miss: 89050
[Bingo] Prefetch PC+Addr: 0
[Bingo] Prefetch PC+Offs: 0
[Bingo] Useful PC+Addr: 0
[Bingo] Useful PC+Offs: 0
[Bingo] Useless PC+Addr: 0
[Bingo] Useless PC+Offs: 0
[Bingo] L1 Prefetch per Region: 0
[Bingo] L2 Prefetch per Region: 4.23897
[Bingo] L3 Prefetch per Region: 0
[Bingo] No Prefetch per Region: 27.761
[Bingo] Number of Voters Mean: 2.8182
[Bingo] Number of Voters SD: 4.74338
PHT read accesses: 1402681
PHT write accesses: 76270
AT read accesses: 1369925
AT write accesses: 1417567
FT read accesses: 306060
FT write accesses: 191026
PS read accesses: 209107
PS write accesses: 101976
PHT tag read accesses: 3148966
PHT tag write accesses: 166871
AT tag read accesses: 46342142
AT tag write accesses: 1446199
FT tag read accesses: 29358528
FT tag write accesses: 386160
PS tag read accesses: 28656151
PS tag write accesses: 310825

DRAM Statistics
 CHANNEL 0
 RQ ROW_BUFFER_HIT:      20891  ROW_BUFFER_MISS:      45406
 DBUS_CONGESTED:         29
 WQ ROW_BUFFER_HIT:       6766  ROW_BUFFER_MISS:      43667  FULL:          0

 AVG_CONGESTED_CYCLE: 4
 All warmup complete: 2
Channel 0 Bank busy for read cycles: 0
Channel 0 Bank busy for write cycles: 0
Channel 0
Rank 0
0banks busy for read cycles: 75389567
0banks busy for write cycles: 11036
1banks busy for read cycles: 2149458
1banks busy for write cycles: 1291794
2banks busy for read cycles: 549814
2banks busy for write cycles: 423754
3banks busy for read cycles: 203810
3banks busy for write cycles: 219568
4banks busy for read cycles: 117463
4banks busy for write cycles: 158267
5banks busy for read cycles: 81375
5banks busy for write cycles: 147337
6banks busy for read cycles: 71537
6banks busy for write cycles: 138826
7banks busy for read cycles: 86961
7banks busy for write cycles: 162389
8banks busy for read cycles: 260392
8banks busy for write cycles: 297538

CPU 0 Branch Prediction Accuracy: 99.5528% MPKI: 0.89798 Average ROB Occupancy at Mispredict: 56.0067
Branch types
NOT_BRANCH: 39958749 79.9175%
BRANCH_DIRECT_JUMP: 449946 0.899892%
BRANCH_INDIRECT: 140210 0.28042%
BRANCH_CONDITIONAL: 7679655 15.3593%
BRANCH_DIRECT_CALL: 701578 1.40316%
BRANCH_INDIRECT_CALL: 168971 0.337942%
BRANCH_RETURN: 900560 1.80112%
BRANCH_OTHER: 0 0%

DRAM PAGES: 1048576
Allocated PAGES: 5909
