Initialize SIGNATURE TABLE
ST_SET: 1
ST_WAY: 256
ST_TAG_BIT: 16
ST_TAG_MASK: ffff

Initialize PATTERN TABLE
PT_SET: 512
PT_WAY: 4
SIG_DELTA_BIT: 7
C_SIG_BIT: 4
C_DELTA_BIT: 4

Initialize PREFETCH FILTER
FILTER_SET: 1024

*** ChampSim Multicore Out-of-Order Simulator ***

Warmup Instructions: 50000000
Simulation Instructions: 50000000
Number of CPUs: 1
LLC sets: 2048
LLC ways: 16
Off-chip DRAM Size: 4096 MB Channels: 1 Width: 64-bit Data Rate: 6400 MT/s
CPU 0 runs ../IPC-traces//server_027.champsimtrace.xz
.xz
NUM_OF_IPS_IN_CRITICAL_IP_TRAINING: 64
NUM_OF_CRITICAL_IP_TRAINING_TABLE_WAYS: 2
NUM_OF_CRITICAL_IP_TRAINING_TABLE_SETS: 32
WOBBLY_CRITICAL_IP_CACHE_SETS: 32
WOBBLY_CRITICAL_IP_CACHE_WAYS: 4
BTB has LRU replacement policy
ITLB has LRU replacement policy
DTLB has LRU replacement policy
STLB has LRU replacement policy
CPU 0 L1I next line prefetcher
L1I has LRU replacement policy
L1D has LRU replacement policy
Initialize SRRIP state for L2C
Initialize DRRIP state for LLC
Heartbeat CPU 0 instructions: 10000000 cycles: 2884196 heartbeat IPC: 3.46717 cumulative IPC: 3.46717 (Simulation time: 0 hr 3 min 10 sec) 
Heartbeat CPU 0 instructions: 20000001 cycles: 5765379 heartbeat IPC: 3.4708 cumulative IPC: 3.46898 (Simulation time: 0 hr 5 min 45 sec) 
Heartbeat CPU 0 instructions: 30000002 cycles: 8646174 heartbeat IPC: 3.47126 cumulative IPC: 3.46974 (Simulation time: 0 hr 8 min 19 sec) 
Heartbeat CPU 0 instructions: 40000000 cycles: 11528090 heartbeat IPC: 3.46991 cumulative IPC: 3.46979 (Simulation time: 0 hr 10 min 32 sec) 
Heartbeat CPU 0 instructions: 50000001 cycles: 14407869 heartbeat IPC: 3.47249 cumulative IPC: 3.47033 (Simulation time: 0 hr 12 min 34 sec) 

Warmup complete CPU 0 instructions: 50000001 cycles: 14407869 (Simulation time: 0 hr 12 min 34 sec) 

% increase in all ip prefetch 419.534
% increase in all ip prefetch 3.39526
Heartbeat CPU 0 instructions: 60000002 cycles: 30847075 heartbeat IPC: 0.608302 cumulative IPC: 0.608302 (Simulation time: 0 hr 15 min 1 sec) 
Heartbeat CPU 0 instructions: 70000001 cycles: 47266384 heartbeat IPC: 0.609039 cumulative IPC: 0.60867 (Simulation time: 0 hr 17 min 27 sec) 
Heartbeat CPU 0 instructions: 80000002 cycles: 63618861 heartbeat IPC: 0.611528 cumulative IPC: 0.60962 (Simulation time: 0 hr 19 min 54 sec) 
Heartbeat CPU 0 instructions: 90000000 cycles: 80078464 heartbeat IPC: 0.607548 cumulative IPC: 0.609101 (Simulation time: 0 hr 22 min 19 sec) 
Heartbeat CPU 0 instructions: 100000002 cycles: 96387596 heartbeat IPC: 0.613154 cumulative IPC: 0.609907 (Simulation time: 0 hr 24 min 11 sec) 
Finished CPU 0 instructions: 50000001 cycles: 81979727 cumulative IPC: 0.609907 (Simulation time: 0 hr 24 min 11 sec) 

ChampSim completed all CPUs

Region of Interest Statistics

CPU 0 cumulative IPC: 0.609907 instructions: 50000001 cycles: 81979727

CPU 0 Average Load ROB stall cycles: 1.99069e+07
CPU 0 Fraction of times ROB stalled by Loads: 35.9088
CPU 0 Percentage of Load stall cycles in Total stall cycles: 2.86881e+08
Issued all: 28183327
Issued LT all: 22403361
rob_not_full_when_issued_lt_all: 22073071
Issued LT one: 17362925
rob_not_full_when_issued_lt_one: 17076151
 Total stall cycles: 68575823
 Total load stall cycles: 196730930124315
CPU 0 NUM of IPS identified critical: 0
CPU 0 Num of Load IPs stalling ROB: 12399
Threshold modification factor: -1
Max PIST entries: 64
Min PIST entries: 0
Avg PIST entries: 32
Trouble in retire width: 0.909306
MaC = Marked as critical.
lt_50_percent_before_Mac: 0
gt_90_percent_before_Mac: 0
gt_75_percent_before_Mac: 0
gt_50_percent_before_Mac: 0
stall_proportion_bin_same_before_after: 0
stall_proportion_bin_lower_before_after: 0
stall_proportion_bin_upper_before_after: 0
average_stall_proportion_before: -nan
average_stall_proportion_after: -nan
Critical IP stalls, total frequency: 0
Non-critical IP stalls, total frequency: 3548702
Total Freq all stalling IPs: 3548702
stat_90_percent_critical_ip_stalls_freq: 3193988
stat_90_percent_non_critical_ip_stalls_freq: 354714
Critical_IP_ROB_Stalls_Bucket_0: 0
Non-critical_IP_ROB_Stalls_Bucket_0: 2536342
Critical_IP_ROB_Stalls_Bucket_1: 0
Non-critical_IP_ROB_Stalls_Bucket_1: 686278
Critical_IP_ROB_Stalls_Bucket_2: 0
Non-critical_IP_ROB_Stalls_Bucket_2: 219252
Critical_IP_ROB_Stalls_Bucket_3: 0
Non-critical_IP_ROB_Stalls_Bucket_3: 54970
Critical_IP_ROB_Stalls_Bucket_4: 0
Non-critical_IP_ROB_Stalls_Bucket_4: 20739
Critical_IP_ROB_Stalls_Bucket_5: 0
Non-critical_IP_ROB_Stalls_Bucket_5: 11045
Critical_IP_ROB_Stalls_Bucket_6: 0
Non-critical_IP_ROB_Stalls_Bucket_6: 20076
0 => IPs accounting for >50 percent of stalls, 1 => 55, 2 => 60, 3 => 65 and so on till 90.
percent50: 50.0134 num IPs:  564
percent55: 55.0187 num IPs: 789
percent60: 60.0118 num IPs: 1032
percent65: 65.0175 num IPs: 1280
percent70: 70.0147 num IPs: 1560
percent75: 75.0079 num IPs: 1918
percent80: 80.0045 num IPs: 2299
percent85: 85.0045 num IPs: 2822
percent90: 90.0045 num IPs: 3525
Critical_ROB_Stalls_Percent_0_Bucket_0: 1032441
Non-critical_ROB_Stalls_Percent_0_Bucket_0: 1503901
Critical_ROB_Stalls_Percent_0_Bucket_1: 471548
Non-critical_ROB_Stalls_Percent_0_Bucket_1: 214730
Critical_ROB_Stalls_Percent_0_Bucket_2: 174624
Non-critical_ROB_Stalls_Percent_0_Bucket_2: 44628
Critical_ROB_Stalls_Percent_0_Bucket_3: 49796
Non-critical_ROB_Stalls_Percent_0_Bucket_3: 5174
Critical_ROB_Stalls_Percent_0_Bucket_4: 18486
Non-critical_ROB_Stalls_Percent_0_Bucket_4: 2253
Critical_ROB_Stalls_Percent_0_Bucket_5: 9864
Non-critical_ROB_Stalls_Percent_0_Bucket_5: 1181
Critical_ROB_Stalls_Percent_0_Bucket_6: 18068
Non-critical_ROB_Stalls_Percent_0_Bucket_6: 2008
Critical_ROB_Stalls_Percent_1_Bucket_0: 1172824
Non-critical_ROB_Stalls_Percent_1_Bucket_0: 1363518
Critical_ROB_Stalls_Percent_1_Bucket_1: 500330
Non-critical_ROB_Stalls_Percent_1_Bucket_1: 185948
Critical_ROB_Stalls_Percent_1_Bucket_2: 181159
Non-critical_ROB_Stalls_Percent_1_Bucket_2: 38093
Critical_ROB_Stalls_Percent_1_Bucket_3: 50640
Non-critical_ROB_Stalls_Percent_1_Bucket_3: 4330
Critical_ROB_Stalls_Percent_1_Bucket_4: 18780
Non-critical_ROB_Stalls_Percent_1_Bucket_4: 1959
Critical_ROB_Stalls_Percent_1_Bucket_5: 9966
Non-critical_ROB_Stalls_Percent_1_Bucket_5: 1079
Critical_ROB_Stalls_Percent_1_Bucket_6: 18748
Non-critical_ROB_Stalls_Percent_1_Bucket_6: 1328
Critical_ROB_Stalls_Percent_2_Bucket_0: 1298424
Non-critical_ROB_Stalls_Percent_2_Bucket_0: 1237918
Critical_ROB_Stalls_Percent_2_Bucket_1: 544125
Non-critical_ROB_Stalls_Percent_2_Bucket_1: 142153
Critical_ROB_Stalls_Percent_2_Bucket_2: 188643
Non-critical_ROB_Stalls_Percent_2_Bucket_2: 30609
Critical_ROB_Stalls_Percent_2_Bucket_3: 50941
Non-critical_ROB_Stalls_Percent_2_Bucket_3: 4029
Critical_ROB_Stalls_Percent_2_Bucket_4: 18786
Non-critical_ROB_Stalls_Percent_2_Bucket_4: 1953
Critical_ROB_Stalls_Percent_2_Bucket_5: 9968
Non-critical_ROB_Stalls_Percent_2_Bucket_5: 1077
Critical_ROB_Stalls_Percent_2_Bucket_6: 18748
Non-critical_ROB_Stalls_Percent_2_Bucket_6: 1328
Critical_ROB_Stalls_Percent_3_Bucket_0: 1447322
Non-critical_ROB_Stalls_Percent_3_Bucket_0: 1089020
Critical_ROB_Stalls_Percent_3_Bucket_1: 568083
Non-critical_ROB_Stalls_Percent_3_Bucket_1: 118195
Critical_ROB_Stalls_Percent_3_Bucket_2: 192735
Non-critical_ROB_Stalls_Percent_3_Bucket_2: 26517
Critical_ROB_Stalls_Percent_3_Bucket_3: 51293
Non-critical_ROB_Stalls_Percent_3_Bucket_3: 3677
Critical_ROB_Stalls_Percent_3_Bucket_4: 19121
Non-critical_ROB_Stalls_Percent_3_Bucket_4: 1618
Critical_ROB_Stalls_Percent_3_Bucket_5: 9969
Non-critical_ROB_Stalls_Percent_3_Bucket_5: 1076
Critical_ROB_Stalls_Percent_3_Bucket_6: 18748
Non-critical_ROB_Stalls_Percent_3_Bucket_6: 1328
Critical_ROB_Stalls_Percent_4_Bucket_0: 1596387
Non-critical_ROB_Stalls_Percent_4_Bucket_0: 939955
Critical_ROB_Stalls_Percent_4_Bucket_1: 590284
Non-critical_ROB_Stalls_Percent_4_Bucket_1: 95994
Critical_ROB_Stalls_Percent_4_Bucket_2: 197845
Non-critical_ROB_Stalls_Percent_4_Bucket_2: 21407
Critical_ROB_Stalls_Percent_4_Bucket_3: 52018
Non-critical_ROB_Stalls_Percent_4_Bucket_3: 2952
Critical_ROB_Stalls_Percent_4_Bucket_4: 19286
Non-critical_ROB_Stalls_Percent_4_Bucket_4: 1453
Critical_ROB_Stalls_Percent_4_Bucket_5: 10038
Non-critical_ROB_Stalls_Percent_4_Bucket_5: 1007
Critical_ROB_Stalls_Percent_4_Bucket_6: 18748
Non-critical_ROB_Stalls_Percent_4_Bucket_6: 1328
Critical_ROB_Stalls_Percent_5_Bucket_0: 1746039
Non-critical_ROB_Stalls_Percent_5_Bucket_0: 790303
Critical_ROB_Stalls_Percent_5_Bucket_1: 611874
Non-critical_ROB_Stalls_Percent_5_Bucket_1: 74404
Critical_ROB_Stalls_Percent_5_Bucket_2: 203209
Non-critical_ROB_Stalls_Percent_5_Bucket_2: 16043
Critical_ROB_Stalls_Percent_5_Bucket_3: 52419
Non-critical_ROB_Stalls_Percent_5_Bucket_3: 2551
Critical_ROB_Stalls_Percent_5_Bucket_4: 19407
Non-critical_ROB_Stalls_Percent_5_Bucket_4: 1332
Critical_ROB_Stalls_Percent_5_Bucket_5: 10072
Non-critical_ROB_Stalls_Percent_5_Bucket_5: 973
Critical_ROB_Stalls_Percent_5_Bucket_6: 18779
Non-critical_ROB_Stalls_Percent_5_Bucket_6: 1297
Critical_ROB_Stalls_Percent_6_Bucket_0: 1901197
Non-critical_ROB_Stalls_Percent_6_Bucket_0: 635145
Critical_ROB_Stalls_Percent_6_Bucket_1: 628288
Non-critical_ROB_Stalls_Percent_6_Bucket_1: 57990
Critical_ROB_Stalls_Percent_6_Bucket_2: 208349
Non-critical_ROB_Stalls_Percent_6_Bucket_2: 10903
Critical_ROB_Stalls_Percent_6_Bucket_3: 52596
Non-critical_ROB_Stalls_Percent_6_Bucket_3: 2374
Critical_ROB_Stalls_Percent_6_Bucket_4: 19523
Non-critical_ROB_Stalls_Percent_6_Bucket_4: 1216
Critical_ROB_Stalls_Percent_6_Bucket_5: 10296
Non-critical_ROB_Stalls_Percent_6_Bucket_5: 749
Critical_ROB_Stalls_Percent_6_Bucket_6: 18857
Non-critical_ROB_Stalls_Percent_6_Bucket_6: 1219
Critical_ROB_Stalls_Percent_7_Bucket_0: 2056856
Non-critical_ROB_Stalls_Percent_7_Bucket_0: 479486
Critical_ROB_Stalls_Percent_7_Bucket_1: 646222
Non-critical_ROB_Stalls_Percent_7_Bucket_1: 40056
Critical_ROB_Stalls_Percent_7_Bucket_2: 211351
Non-critical_ROB_Stalls_Percent_7_Bucket_2: 7901
Critical_ROB_Stalls_Percent_7_Bucket_3: 53057
Non-critical_ROB_Stalls_Percent_7_Bucket_3: 1913
Critical_ROB_Stalls_Percent_7_Bucket_4: 19724
Non-critical_ROB_Stalls_Percent_7_Bucket_4: 1015
Critical_ROB_Stalls_Percent_7_Bucket_5: 10351
Non-critical_ROB_Stalls_Percent_7_Bucket_5: 694
Critical_ROB_Stalls_Percent_7_Bucket_6: 18980
Non-critical_ROB_Stalls_Percent_7_Bucket_6: 1096
Critical_ROB_Stalls_Percent_8_Bucket_0: 2221263
Non-critical_ROB_Stalls_Percent_8_Bucket_0: 315079
Critical_ROB_Stalls_Percent_8_Bucket_1: 657247
Non-critical_ROB_Stalls_Percent_8_Bucket_1: 29031
Critical_ROB_Stalls_Percent_8_Bucket_2: 213025
Non-critical_ROB_Stalls_Percent_8_Bucket_2: 6227
Critical_ROB_Stalls_Percent_8_Bucket_3: 53335
Non-critical_ROB_Stalls_Percent_8_Bucket_3: 1635
Critical_ROB_Stalls_Percent_8_Bucket_4: 19756
Non-critical_ROB_Stalls_Percent_8_Bucket_4: 983
Critical_ROB_Stalls_Percent_8_Bucket_5: 10371
Non-critical_ROB_Stalls_Percent_8_Bucket_5: 674
Critical_ROB_Stalls_Percent_8_Bucket_6: 18991
Non-critical_ROB_Stalls_Percent_8_Bucket_6: 1085
Average ROB occupancy Load Stall Begin: 36.3936
Average ROB occupancy Load Stall End: 44.2772
Min ROB occupancy Load Stall Begin: 1
Max ROB occupancy Load Stall Begin: 352
Min ROB occupancy Load Stall End: 1
Max ROB occupancy Load Stall End: 352
Average ROB occupancy Critical Load Stall Begin: -nan
Average ROB occupancy Critical Load Stall End: -nan
Min ROB occupancy Critical Load Stall Begin: 400
Max ROB occupancy Critical Load Stall Begin: 0
Min ROB occupancy Critical Load Stall End: 400
Max ROB occupancy Critical Load Stall End: 0
 ROB Load Stall Begin Bucket Count 0: 2772054
 ROB Load Stall End Bucket Count 0: 2536342
 ROB Critical Load Stall Begin Bucket Count 0: 0
 ROB Critical Load Stall End Bucket Count 0: 0
 ROB Load Stall Begin Bucket Count 1: 523702
 ROB Load Stall End Bucket Count 1: 686278
 ROB Critical Load Stall Begin Bucket Count 1: 0
 ROB Critical Load Stall End Bucket Count 1: 0
 ROB Load Stall Begin Bucket Count 2: 164539
 ROB Load Stall End Bucket Count 2: 219252
 ROB Critical Load Stall Begin Bucket Count 2: 0
 ROB Critical Load Stall End Bucket Count 2: 0
 ROB Load Stall Begin Bucket Count 3: 42171
 ROB Load Stall End Bucket Count 3: 54970
 ROB Critical Load Stall Begin Bucket Count 3: 0
 ROB Critical Load Stall End Bucket Count 3: 0
 ROB Load Stall Begin Bucket Count 4: 17555
 ROB Load Stall End Bucket Count 4: 20739
 ROB Critical Load Stall Begin Bucket Count 4: 0
 ROB Critical Load Stall End Bucket Count 4: 0
 ROB Load Stall Begin Bucket Count 5: 10201
 ROB Load Stall End Bucket Count 5: 11045
 ROB Critical Load Stall Begin Bucket Count 5: 0
 ROB Critical Load Stall End Bucket Count 5: 0
 ROB Load Stall Begin Bucket Count 6: 18480
 ROB Load Stall End Bucket Count 6: 20076
 ROB Critical Load Stall Begin Bucket Count 6: 0
 ROB Critical Load Stall End Bucket Count 6: 0
PIST Tag Read Accesses: 2317192
PIST Read Accesses: 1158596
PIST Tag Write Accesses: 2317192
PIST Write Accesses: 1158596
Criticality detector called times: 3435504
Max global_stall_cycles_count: 1939782
Threshold Modified: 1 times, factor: -1
Sturdy critical IP cache stats: 
 Unused entries: 0
CIC Tag Read Accesses: 0
CIC Read Accesses: 0
CIC Tag Write Accesses: 0
CIC Write Accesses: 0
Wobbly critical IP cache stats: 
 Unused entries: 125
CIC Tag Read Accesses: 86027168
CIC Read Accesses: 0
CIC Tag Write Accesses: 3
CIC Write Accesses: 0
ITLB TOTAL     ACCESS:   10099142  HIT:    9426507  MISS:     672635  HIT %:    93.3397  MISS %:    6.66032   MPKI: 13.4527
ITLB LOAD TRANSLATION ACCESS:    8097246  HIT:    8004281  MISS:      92965  HIT %:    98.8519  MISS %:    1.14811   MPKI: 1.8593
ITLB TRANSLATION FROM L1D PREFETCHER ACCESS:    2001896  HIT:    1422226  MISS:     579670  HIT %:     71.044  MISS %:     28.956   MPKI: 11.5934
ITLB PREFETCH  REQUESTED:          0  ISSUED:          0  USEFUL:     461071  USELESS:     118590
ITLB USEFUL LOAD PREFETCHES:     461071 PREFETCH ISSUED TO LOWER LEVEL:          0  ACCURACY: inf
ITLB TIMELY PREFETCHES:     461071 LATE PREFETCHES: 166 DROPPED PREFETCHES: 4003
ITLB PREFETCHES SAME FILL-ORIGIN LEVEL: 0 DIFFERENT FILL-ORIGIN LEVEL: 0
ITLB AVERAGE MISS LATENCY: 10470.1 cycles
ITLB RQ	ACCESS:   15151324	FORWARD:          0	MERGED:    5007270	TO_CACHE:   10144054

DTLB TOTAL     ACCESS:   11611800  HIT:   11137570  MISS:     474230  HIT %:     95.916  MISS %:    4.08404   MPKI: 9.4846
DTLB LOAD TRANSLATION ACCESS:   11611800  HIT:   11137570  MISS:     474230  HIT %:     95.916  MISS %:    4.08404   MPKI: 9.4846
DTLB PREFETCH  REQUESTED:          0  ISSUED:          0  USEFUL:          0  USELESS:          0
DTLB USEFUL LOAD PREFETCHES:          0 PREFETCH ISSUED TO LOWER LEVEL:          0  ACCURACY: -nan
DTLB TIMELY PREFETCHES:          0 LATE PREFETCHES: 0 DROPPED PREFETCHES: 0
DTLB PREFETCHES SAME FILL-ORIGIN LEVEL: 0 DIFFERENT FILL-ORIGIN LEVEL: 0
DTLB AVERAGE MISS LATENCY: 9.33552 cycles
DTLB RQ	ACCESS:   15078425	FORWARD:          0	MERGED:    3441058	TO_CACHE:   11637367

STLB TOTAL     ACCESS:    1146865  HIT:    1144745  MISS:       2120  HIT %:    99.8151  MISS %:   0.184852   MPKI: 0.0424
STLB LOAD TRANSLATION ACCESS:     567029  HIT:     565030  MISS:       1999  HIT %:    99.6475  MISS %:   0.352539   MPKI: 0.03998
STLB TRANSLATION FROM L1D PREFETCHER ACCESS:     579836  HIT:     579715  MISS:        121  HIT %:    99.9791  MISS %:   0.020868   MPKI: 0.00242
STLB PREFETCH  REQUESTED:          0  ISSUED:          0  USEFUL:        110  USELESS:         10
STLB USEFUL LOAD PREFETCHES:        110 PREFETCH ISSUED TO LOWER LEVEL:          0  ACCURACY: inf
STLB TIMELY PREFETCHES:        110 LATE PREFETCHES: 0 DROPPED PREFETCHES: 4003
STLB PREFETCHES SAME FILL-ORIGIN LEVEL: 0 DIFFERENT FILL-ORIGIN LEVEL: 0
STLB AVERAGE MISS LATENCY: 79.4557 cycles
STLB RQ	ACCESS:    1150868	FORWARD:          0	MERGED:          0	TO_CACHE:    1150868

STLB Hit, L1D data hit: 0
STLB Hit, L2C data hit: 0
STLB Hit, LLC data hit: 0
STLB Hit, LLC data miss: 0
STLB STLB hints to L2: 0
L1D TOTAL     ACCESS:   14578509  HIT:   13560007  MISS:    1018502  HIT %:    93.0137  MISS %:    6.98632   MPKI: 20.37
L1D LOAD      ACCESS:    8176062  HIT:    7445598  MISS:     730464  HIT %:    91.0658  MISS %:    8.93418   MPKI: 14.6093
L1D RFO       ACCESS:    6402447  HIT:    6114409  MISS:     288038  HIT %:    95.5011  MISS %:    4.49887   MPKI: 5.76076
L1D PREFETCH  REQUESTED:          0  ISSUED:          0  USEFUL:          0  USELESS:          0
L1D USEFUL LOAD PREFETCHES:          0 PREFETCH ISSUED TO LOWER LEVEL:          0  ACCURACY: -nan
L1D TIMELY PREFETCHES:          0 LATE PREFETCHES: 0 DROPPED PREFETCHES: 0
L1D PREFETCHES SAME FILL-ORIGIN LEVEL: 0 DIFFERENT FILL-ORIGIN LEVEL: 0
L1D AVERAGE MISS LATENCY: 23.5338 cycles
L1D RQ	ACCESS:   11680334	FORWARD:          0	MERGED:    3334701	TO_CACHE:    8205368
L1D WQ	ACCESS:    6942496	FORWARD:     140265	MERGED:      69439	TO_CACHE:    6873057

L1D UNIQUE REGIONS ACCESSED: 0
L1D REGIONS CONFLICTS: 0
L1D Cross Page Prefetch Requests: 0
L1D Same Page Prefetch Requests: 0
L1D ROI Sum of L1D PQ occupancy: 0
L1D PREFETCHES PUSHED FROM L2C: 0
L1I TOTAL     ACCESS:   15001517  HIT:   10877251  MISS:    4124266  HIT %:    72.5077  MISS %:    27.4923   MPKI: 82.4853
L1I LOAD      ACCESS:    9544769  HIT:    9263668  MISS:     281101  HIT %:    97.0549  MISS %:    2.94508   MPKI: 5.62202
L1I PREFETCH  ACCESS:    5456748  HIT:    1613583  MISS:    3843165  HIT %:    29.5704  MISS %:    70.4296   MPKI: 76.8633
L1I PREFETCH  REQUESTED:    5716071  ISSUED:    5700891  USEFUL:    2609035  USELESS:    1234093
L1I USEFUL LOAD PREFETCHES:    2609035 PREFETCH ISSUED TO LOWER LEVEL:    3873215  ACCURACY: 67.361
L1I TIMELY PREFETCHES:    2609035 LATE PREFETCHES: 30041 DROPPED PREFETCHES: 9449
L1I PREFETCHES SAME FILL-ORIGIN LEVEL: 3873215 DIFFERENT FILL-ORIGIN LEVEL: 0
L1I AVERAGE MISS LATENCY: 396191 cycles
L1I RQ	ACCESS:   13511298	FORWARD:          0	MERGED:    3942760	TO_CACHE:    9568538
L1I PQ	ACCESS:    5700891	FORWARD:          0	MERGED:     118105	TO_CACHE:    5582786

BTB TOTAL     ACCESS:    5988364  HIT:    3982731  MISS:    2005633  HIT %:    66.5078  MISS %:    33.4922   MPKI: 40.1127
BTB BRANCH_DIRECT_JUMP	ACCESS:     526631  HIT:     350330  MISS:     176301
BTB BRANCH_INDIRECT	ACCESS:     205902  HIT:     168509  MISS:      37393
BTB BRANCH_CONDITIONAL	ACCESS:    3029929  HIT:    2469491  MISS:     560438
BTB BRANCH_DIRECT_CALL	ACCESS:     938462  HIT:     531149  MISS:     407313
BTB BRANCH_INDIRECT_CALL	ACCESS:     174486  HIT:      95785  MISS:      78701
BTB BRANCH_RETURN	ACCESS:    1112954  HIT:     367467  MISS:     745487
BTB BRANCH_OTHER ACCESS:          0  HIT:          0  MISS:          0

L2C TOTAL     ACCESS:    5672861  HIT:    5206585  MISS:     466276  HIT %:    91.7806  MISS %:    8.21942   MPKI: 9.32552
L2C LOAD      ACCESS:     981422  HIT:     838037  MISS:     143385  HIT %:    85.3901  MISS %:    14.6099   MPKI: 2.8677
L2C DATA LOAD MPKI: 2.20786
L2C INSTRUCTION LOAD MPKI: 0.65984
L2C RFO       ACCESS:     288037  HIT:     230845  MISS:      57192  HIT %:    80.1442  MISS %:    19.8558   MPKI: 1.14384
L2C PREFETCH  ACCESS:    3890313  HIT:    3646562  MISS:     243751  HIT %:    93.7344  MISS %:    6.26559   MPKI: 4.87502
L2C DATA PREFETCH MPKI: 0.00908
L2C INSTRUCTION PREFETCH MPKI: 4.86594
L2C WRITEBACK ACCESS:     505240  HIT:     485038  MISS:      20202  HIT %:    96.0015  MISS %:     3.9985   MPKI: 0.40404
L2C LOAD TRANSLATION ACCESS:       2149  HIT:        593  MISS:       1556  HIT %:    27.5942  MISS %:    72.4058   MPKI: 0.03112
L2C TRANSLATION FROM L1D PREFETCHER ACCESS:       5700  HIT:       5510  MISS:        190  HIT %:    96.6667  MISS %:    3.33333   MPKI: 0.0038
L2C PREFETCH  REQUESTED:      41660  ISSUED:      41660  USEFUL:       6207  USELESS:     238033
L2C USEFUL LOAD PREFETCHES:       6207 PREFETCH ISSUED TO LOWER LEVEL:     264467  ACCURACY: 2.34698
L2C TIMELY PREFETCHES:       6207 LATE PREFETCHES: 1655 DROPPED PREFETCHES: 0
L2C PREFETCHES SAME FILL-ORIGIN LEVEL: 2109 DIFFERENT FILL-ORIGIN LEVEL: 19061
L2C AVERAGE MISS LATENCY: 37.0646 cycles
L2C RQ	ACCESS:    1277411	FORWARD:          0	MERGED:          0	TO_CACHE:    1277308
L2C WQ	ACCESS:     505240	FORWARD:        105	MERGED:          0	TO_CACHE:     505240
L2C PQ	ACCESS:    3914864	FORWARD:          0	MERGED:       2240	TO_CACHE:    3912622

L2C Instructions Evicting Data 100491
L2C Translations Evicting Data 1056
L2C Data Evicting Data 78909
L2C Instructions Evicting Instructions 175094
L2C Translations Evicting Instructions 672
L2C Data Evicting Instructions 88132
L2C Instructions Evicting Translations 704
L2C Translations Evicting Translations 18
L2C Data Evicting Translations 998
L2C Dense regions hint from L2: 0
PSCL5 TOTAL     ACCESS:       6123  HIT:       6123  MISS:          0  HIT %:        100  MISS %:          0   MPKI: 0
PSCL5 LOAD TRANSLATION ACCESS:       1999  HIT:       1999  MISS:          0  HIT %:        100  MISS %:          0   MPKI: 0
PSCL5 TRANSLATION FROM L1D PREFETCHER ACCESS:       4124  HIT:       4124  MISS:          0  HIT %:        100  MISS %:          0   MPKI: 0
PSCL5 PREFETCH  REQUESTED:          0  ISSUED:          0  USEFUL:          0  USELESS:          0
PSCL5 USEFUL LOAD PREFETCHES:          0 PREFETCH ISSUED TO LOWER LEVEL:          0  ACCURACY: -nan
PSCL5 TIMELY PREFETCHES:          0 LATE PREFETCHES: 0 DROPPED PREFETCHES: 0
PSCL5 PREFETCHES SAME FILL-ORIGIN LEVEL: 0 DIFFERENT FILL-ORIGIN LEVEL: 0

PSCL4 TOTAL     ACCESS:       5654  HIT:       5637  MISS:         17  HIT %:    99.6993  MISS %:   0.300672   MPKI: 0.00034
PSCL4 LOAD TRANSLATION ACCESS:       1852  HIT:       1835  MISS:         17  HIT %:    99.0821  MISS %:   0.917927   MPKI: 0.00034
PSCL4 TRANSLATION FROM L1D PREFETCHER ACCESS:       3802  HIT:       3802  MISS:          0  HIT %:        100  MISS %:          0   MPKI: 0
PSCL4 PREFETCH  REQUESTED:          0  ISSUED:          0  USEFUL:          0  USELESS:          0
PSCL4 USEFUL LOAD PREFETCHES:          0 PREFETCH ISSUED TO LOWER LEVEL:          0  ACCURACY: -nan
PSCL4 TIMELY PREFETCHES:          0 LATE PREFETCHES: 0 DROPPED PREFETCHES: 0
PSCL4 PREFETCHES SAME FILL-ORIGIN LEVEL: 0 DIFFERENT FILL-ORIGIN LEVEL: 0

PSCL3 TOTAL     ACCESS:       5713  HIT:       5696  MISS:         17  HIT %:    99.7024  MISS %:   0.297567   MPKI: 0.00034
PSCL3 LOAD TRANSLATION ACCESS:       1911  HIT:       1894  MISS:         17  HIT %:    99.1104  MISS %:   0.889587   MPKI: 0.00034
PSCL3 TRANSLATION FROM L1D PREFETCHER ACCESS:       3802  HIT:       3802  MISS:          0  HIT %:        100  MISS %:          0   MPKI: 0
PSCL3 PREFETCH  REQUESTED:          0  ISSUED:          0  USEFUL:          0  USELESS:          0
PSCL3 USEFUL LOAD PREFETCHES:          0 PREFETCH ISSUED TO LOWER LEVEL:          0  ACCURACY: -nan
PSCL3 TIMELY PREFETCHES:          0 LATE PREFETCHES: 0 DROPPED PREFETCHES: 0
PSCL3 PREFETCHES SAME FILL-ORIGIN LEVEL: 0 DIFFERENT FILL-ORIGIN LEVEL: 0

PSCL2 TOTAL     ACCESS:       4747  HIT:       4605  MISS:        142  HIT %:    97.0086  MISS %:    2.99136   MPKI: 0.00284
PSCL2 LOAD TRANSLATION ACCESS:       2019  HIT:       1877  MISS:        142  HIT %:    92.9668  MISS %:    7.03318   MPKI: 0.00284
PSCL2 TRANSLATION FROM L1D PREFETCHER ACCESS:       2728  HIT:       2728  MISS:          0  HIT %:        100  MISS %:          0   MPKI: 0
PSCL2 PREFETCH  REQUESTED:          0  ISSUED:          0  USEFUL:          0  USELESS:          0
PSCL2 USEFUL LOAD PREFETCHES:          0 PREFETCH ISSUED TO LOWER LEVEL:          0  ACCURACY: -nan
PSCL2 TIMELY PREFETCHES:          0 LATE PREFETCHES: 0 DROPPED PREFETCHES: 0
PSCL2 PREFETCHES SAME FILL-ORIGIN LEVEL: 0 DIFFERENT FILL-ORIGIN LEVEL: 0

LLC TOTAL     ACCESS:     544661  HIT:     519135  MISS:      25526  HIT %:    95.3134  MISS %:    4.68658   MPKI: 0.51052
LLC LOAD      ACCESS:     141730  HIT:     132627  MISS:       9103  HIT %:    93.5772  MISS %:    6.42278   MPKI: 0.18206
LLC RFO       ACCESS:      57192  HIT:      42537  MISS:      14655  HIT %:    74.3758  MISS %:    25.6242   MPKI: 0.2931
LLC PREFETCH  ACCESS:     263996  HIT:     262728  MISS:       1268  HIT %:    99.5197  MISS %:    0.48031   MPKI: 0.02536
LLC WRITEBACK ACCESS:      79997  HIT:      79661  MISS:        336  HIT %:      99.58  MISS %:   0.420016   MPKI: 0.00672
LLC LOAD TRANSLATION ACCESS:       1556  HIT:       1402  MISS:        154  HIT %:    90.1028  MISS %:    9.89717   MPKI: 0.00308
LLC TRANSLATION FROM L1D PREFETCHER ACCESS:        190  HIT:        180  MISS:         10  HIT %:    94.7368  MISS %:    5.26316   MPKI: 0.0002
LLC PREFETCH  REQUESTED:          0  ISSUED:          0  USEFUL:        449  USELESS:       3526
LLC USEFUL LOAD PREFETCHES:        449 PREFETCH ISSUED TO LOWER LEVEL:       1451  ACCURACY: 30.9442
LLC TIMELY PREFETCHES:        449 LATE PREFETCHES: 183 DROPPED PREFETCHES: 0
LLC PREFETCHES SAME FILL-ORIGIN LEVEL: 563 DIFFERENT FILL-ORIGIN LEVEL: 0
LLC AVERAGE MISS LATENCY: 154.421 cycles
LLC RQ	ACCESS:     200668	FORWARD:          0	MERGED:          0	TO_CACHE:     200668
LLC WQ	ACCESS:      79997	FORWARD:          0	MERGED:          0	TO_CACHE:      79997
LLC PQ	ACCESS:     264467	FORWARD:          0	MERGED:        188	TO_CACHE:     264279

LLC Dense regions hint to LLC: 0

RAW hits: 954394
Loads Generated: 12634728
Loads sent to L1D: 11680334
Stores Generated: 6942481
Stores sent to L1D: 6942496
Major fault: 0 Minor fault: 2582
Allocated PAGES: 2582
I-Shadow cache 408 bytes
Touched + WorthPF tables 6144 bytes 
MMA filter 174 bytes 
FNL filter 272 bytes 
TOTAL PREFETCHER STORAGE SIZE: 25174 bytes
CPU 0 L1I next line prefetcher final stats
 All Calls: 9420754
 Critical Calls: 9420754
------------------
Depth Distribution
------------------
depth 0: 0
depth 1: 735400
depth 2: 9895
depth 3: 4215
depth 4: 2173
depth 5: 737
depth 6: 43
depth 7: 0
depth 8: 0
depth 9: 0
depth 10: 0
depth 11: 0
depth 12: 0
depth 13: 0
depth 14: 0
depth 15: 0
depth 16: 0
depth 17: 0
depth 18: 0
depth 19: 0
depth 20: 0
depth 21: 0
depth 22: 0
depth 23: 0
depth 24: 0
depth 25: 0
depth 26: 0
depth 27: 0
depth 28: 0
depth 29: 0
Total: 752463
-----------------------------
-----------------------------
	Captured at Filter
-----------------------------
depth 0: 0
depth 1: 82233
depth 2: 227
depth 3: 35
depth 4: 7
depth 5: 3
depth 6: 1
depth 7: 0
depth 8: 0
depth 9: 0
depth 10: 0
depth 11: 0
depth 12: 0
depth 13: 0
depth 14: 0
depth 15: 0
depth 16: 0
depth 17: 0
depth 18: 0
depth 19: 0
depth 20: 0
depth 21: 0
depth 22: 0
depth 23: 0
depth 24: 0
depth 25: 0
depth 26: 0
depth 27: 0
depth 28: 0
depth 29: 0
-----------------------------
-----------------------------
		Lost at Page
-----------------------------
depth 0: 0
depth 1: 227139
depth 2: 1723
depth 3: 422
depth 4: 170
depth 5: 66
depth 6: 10
depth 7: 0
depth 8: 0
depth 9: 0
depth 10: 0
depth 11: 0
depth 12: 0
depth 13: 0
depth 14: 0
depth 15: 0
depth 16: 0
depth 17: 0
depth 18: 0
depth 19: 0
depth 20: 0
depth 21: 0
depth 22: 0
depth 23: 0
depth 24: 0
depth 25: 0
depth 26: 0
depth 27: 0
depth 28: 0
depth 29: 0
-----------------------------
-----------------------------
	Lost due to PQ Size
-----------------------------
8607809
-----------------------------
ST read accesses: 3981230
ST write accesses: 618305
PT read accesses: 51262282
PT write accesses: 5327577
FILTER read accesses: 9692442
FILTER write accesses: 500630
GHR read accesses: 5793852
GHR write accesses: 128917
GHR counter read accesses: 45684934
GHR counter write accesses: 4714494
ST tag read accesses: 2085353172
ST tag write accesses: 226197104

DRAM Statistics
 CHANNEL 0
 RQ ROW_BUFFER_HIT:       9438  ROW_BUFFER_MISS:      15749
 DBUS_CONGESTED:          5
 WQ ROW_BUFFER_HIT:       1343  ROW_BUFFER_MISS:      11796  FULL:          0

 AVG_CONGESTED_CYCLE: 3
 All warmup complete: 2
Channel 0 Bank busy for read cycles: 0
Channel 0 Bank busy for write cycles: 0
Channel 0
Rank 0
0banks busy for read cycles: 79451906
0banks busy for write cycles: 2871
1banks busy for read cycles: 1132093
1banks busy for write cycles: 393317
2banks busy for read cycles: 143587
2banks busy for write cycles: 123986
3banks busy for read cycles: 63002
3banks busy for write cycles: 91471
4banks busy for read cycles: 33814
4banks busy for write cycles: 75539
5banks busy for read cycles: 27449
5banks busy for write cycles: 80534
6banks busy for read cycles: 29825
6banks busy for write cycles: 71453
7banks busy for read cycles: 34274
7banks busy for write cycles: 66653
8banks busy for read cycles: 68989
8banks busy for write cycles: 88965

CPU 0 Branch Prediction Accuracy: 99.8082% MPKI: 0.35064 Average ROB Occupancy at Mispredict: 70.4661
Branch types
NOT_BRANCH: 40857254 81.7145%
BRANCH_DIRECT_JUMP: 526631 1.05326%
BRANCH_INDIRECT: 205902 0.411804%
BRANCH_CONDITIONAL: 6184017 12.368%
BRANCH_DIRECT_CALL: 938462 1.87692%
BRANCH_INDIRECT_CALL: 174486 0.348972%
BRANCH_RETURN: 1112954 2.22591%
BRANCH_OTHER: 0 0%

DRAM PAGES: 1048576
Allocated PAGES: 2582
