
*** ChampSim Multicore Out-of-Order Simulator ***

Warmup Instructions: 50000000
Simulation Instructions: 50000000
Number of CPUs: 1
LLC sets: 2048
LLC ways: 16
Off-chip DRAM Size: 4096 MB Channels: 1 Width: 64-bit Data Rate: 6400 MT/s
CPU 0 runs ../IPC-traces//server_026.champsimtrace.xz
.xz
NUM_OF_IPS_IN_CRITICAL_IP_TRAINING: 64
NUM_OF_CRITICAL_IP_TRAINING_TABLE_WAYS: 2
NUM_OF_CRITICAL_IP_TRAINING_TABLE_SETS: 32
WOBBLY_CRITICAL_IP_CACHE_SETS: 32
WOBBLY_CRITICAL_IP_CACHE_WAYS: 4
BTB has LRU replacement policy
ITLB has LRU replacement policy
DTLB has LRU replacement policy
STLB has LRU replacement policy
CPU 0 L1I next line prefetcher
L1I has LRU replacement policy
IP Table Entries: 64
L1D has LRU replacement policy
Initialize SRRIP state for L2C
Initialize DRRIP state for LLC
Heartbeat CPU 0 instructions: 10000000 cycles: 2883044 heartbeat IPC: 3.46856 cumulative IPC: 3.46856 (Simulation time: 0 hr 2 min 9 sec) 
Heartbeat CPU 0 instructions: 20000002 cycles: 5764077 heartbeat IPC: 3.47098 cumulative IPC: 3.46977 (Simulation time: 0 hr 4 min 14 sec) 
Heartbeat CPU 0 instructions: 30000003 cycles: 8642149 heartbeat IPC: 3.47455 cumulative IPC: 3.47136 (Simulation time: 0 hr 6 min 23 sec) 
Heartbeat CPU 0 instructions: 40000001 cycles: 11522864 heartbeat IPC: 3.47136 cumulative IPC: 3.47136 (Simulation time: 0 hr 8 min 30 sec) 
Heartbeat CPU 0 instructions: 50000000 cycles: 14401435 heartbeat IPC: 3.47395 cumulative IPC: 3.47188 (Simulation time: 0 hr 10 min 28 sec) 

Warmup complete CPU 0 instructions: 50000004 cycles: 14401436 (Simulation time: 0 hr 10 min 28 sec) 

% increase in all ip prefetch 429.881
% increase in all ip prefetch 2.79138
*** Reached end of trace for Core: 0 Repeating trace: ../IPC-traces//server_026.champsimtrace.xz
Heartbeat CPU 0 instructions: 60000000 cycles: 30836592 heartbeat IPC: 0.608452 cumulative IPC: 0.608452 (Simulation time: 0 hr 12 min 49 sec) 
Heartbeat CPU 0 instructions: 70000001 cycles: 47090825 heartbeat IPC: 0.615224 cumulative IPC: 0.611819 (Simulation time: 0 hr 15 min 11 sec) 
Heartbeat CPU 0 instructions: 80000003 cycles: 63418344 heartbeat IPC: 0.612463 cumulative IPC: 0.612034 (Simulation time: 0 hr 17 min 32 sec) 
Heartbeat CPU 0 instructions: 90000002 cycles: 79685185 heartbeat IPC: 0.614747 cumulative IPC: 0.61271 (Simulation time: 0 hr 19 min 54 sec) 
Heartbeat CPU 0 instructions: 100000000 cycles: 95986066 heartbeat IPC: 0.613464 cumulative IPC: 0.612861 (Simulation time: 0 hr 23 min 31 sec) 
Finished CPU 0 instructions: 50000000 cycles: 81584631 cumulative IPC: 0.612861 (Simulation time: 0 hr 23 min 31 sec) 

ChampSim completed all CPUs

Region of Interest Statistics

CPU 0 cumulative IPC: 0.612861 instructions: 50000000 cycles: 81584631

CPU 0 Average Load ROB stall cycles: 1.98521e+07
CPU 0 Fraction of times ROB stalled by Loads: 35.9067
CPU 0 Percentage of Load stall cycles in Total stall cycles: 2.85097e+08
Issued all: 28216603
Issued LT all: 22422926
rob_not_full_when_issued_lt_all: 22048481
Issued LT one: 17397625
rob_not_full_when_issued_lt_one: 17072687
 Total stall cycles: 68203027
 Total load stall cycles: 194445059149934
Unique Load IPs: 13263
CPU 0 NUM of IPS identified critical: 3
CPU 0 Num of Load IPs stalling ROB: 11883
Threshold modification factor: -1
Max PIST entries: 64
Min PIST entries: 0
Avg PIST entries: 32
Trouble in retire width: 0.9097
MaC = Marked as critical.
lt_50_percent_before_Mac: 3
gt_90_percent_before_Mac: 0
gt_75_percent_before_Mac: 0
gt_50_percent_before_Mac: 0
stall_proportion_bin_same_before_after: 0
stall_proportion_bin_lower_before_after: 0
stall_proportion_bin_upper_before_after: 0
average_stall_proportion_before: 0.0562311
average_stall_proportion_after: 0.0555848
Critical IP stalls, total frequency: 112702
Non-critical IP stalls, total frequency: 3404241
Total Freq all stalling IPs: 3516943
Critical_IP_Detector_Accuracy_70: 1
Critical_IP_Detector_Accuracy_80: 1
Critical_IP_Detector_Accuracy_90: 1
Critical_IP_Detector_Coverage_70: 0.00195059
Critical_IP_Detector_Coverage_80: 0.00131694
Critical_IP_Detector_Coverage_90: 0.000856409
stat_90_percent_critical_ip_stalls_freq: 3165290
stat_90_percent_non_critical_ip_stalls_freq: 351653
AVERAGE_ROB_Occupancy_90_Percent_Critical_IP_Stalls: 46.6689
AVERAGE_ROB_Occupancy_90_Percent_Non_Critical_IP_Stalls: 26.6049
Critical_IP_ROB_Stalls_Bucket_0: 2529
Non-critical_IP_ROB_Stalls_Bucket_0: 2493920
Critical_IP_ROB_Stalls_Bucket_1: 51329
Non-critical_IP_ROB_Stalls_Bucket_1: 638782
Critical_IP_ROB_Stalls_Bucket_2: 24369
Non-critical_IP_ROB_Stalls_Bucket_2: 200093
Critical_IP_ROB_Stalls_Bucket_3: 8352
Non-critical_IP_ROB_Stalls_Bucket_3: 47950
Critical_IP_ROB_Stalls_Bucket_4: 5565
Non-critical_IP_ROB_Stalls_Bucket_4: 14133
Critical_IP_ROB_Stalls_Bucket_5: 5130
Non-critical_IP_ROB_Stalls_Bucket_5: 5659
Critical_IP_ROB_Stalls_Bucket_6: 15428
Non-critical_IP_ROB_Stalls_Bucket_6: 3704
0 => IPs accounting for >50 percent of stalls, 1 => 55, 2 => 60, 3 => 65 and so on till 90.
percent50: 50.0148 num IPs:  550
percent55: 55.0163 num IPs: 769
percent60: 60.0019 num IPs: 1011
percent65: 65.0124 num IPs: 1258
percent70: 70.0035 num IPs: 1538
percent75: 75.0105 num IPs: 1897
percent80: 80.0102 num IPs: 2278
percent85: 85.007 num IPs: 2799
percent90: 90.0005 num IPs: 3503
Critical_ROB_Stalls_Percent_0_Bucket_0: 1021342
Non-critical_ROB_Stalls_Percent_0_Bucket_0: 1475107
Critical_ROB_Stalls_Percent_0_Bucket_1: 464987
Non-critical_ROB_Stalls_Percent_0_Bucket_1: 225124
Critical_ROB_Stalls_Percent_0_Bucket_2: 177614
Non-critical_ROB_Stalls_Percent_0_Bucket_2: 46848
Critical_ROB_Stalls_Percent_0_Bucket_3: 50658
Non-critical_ROB_Stalls_Percent_0_Bucket_3: 5644
Critical_ROB_Stalls_Percent_0_Bucket_4: 17476
Non-critical_ROB_Stalls_Percent_0_Bucket_4: 2222
Critical_ROB_Stalls_Percent_0_Bucket_5: 9635
Non-critical_ROB_Stalls_Percent_0_Bucket_5: 1154
Critical_ROB_Stalls_Percent_0_Bucket_6: 17282
Non-critical_ROB_Stalls_Percent_0_Bucket_6: 1850
Critical_ROB_Stalls_Percent_1_Bucket_0: 1153057
Non-critical_ROB_Stalls_Percent_1_Bucket_0: 1343392
Critical_ROB_Stalls_Percent_1_Bucket_1: 496612
Non-critical_ROB_Stalls_Percent_1_Bucket_1: 193499
Critical_ROB_Stalls_Percent_1_Bucket_2: 188388
Non-critical_ROB_Stalls_Percent_1_Bucket_2: 36074
Critical_ROB_Stalls_Percent_1_Bucket_3: 51696
Non-critical_ROB_Stalls_Percent_1_Bucket_3: 4606
Critical_ROB_Stalls_Percent_1_Bucket_4: 18027
Non-critical_ROB_Stalls_Percent_1_Bucket_4: 1671
Critical_ROB_Stalls_Percent_1_Bucket_5: 9768
Non-critical_ROB_Stalls_Percent_1_Bucket_5: 1021
Critical_ROB_Stalls_Percent_1_Bucket_6: 17347
Non-critical_ROB_Stalls_Percent_1_Bucket_6: 1785
Critical_ROB_Stalls_Percent_2_Bucket_0: 1278529
Non-critical_ROB_Stalls_Percent_2_Bucket_0: 1217920
Critical_ROB_Stalls_Percent_2_Bucket_1: 538938
Non-critical_ROB_Stalls_Percent_2_Bucket_1: 151173
Critical_ROB_Stalls_Percent_2_Bucket_2: 195471
Non-critical_ROB_Stalls_Percent_2_Bucket_2: 28991
Critical_ROB_Stalls_Percent_2_Bucket_3: 52146
Non-critical_ROB_Stalls_Percent_2_Bucket_3: 4156
Critical_ROB_Stalls_Percent_2_Bucket_4: 18028
Non-critical_ROB_Stalls_Percent_2_Bucket_4: 1670
Critical_ROB_Stalls_Percent_2_Bucket_5: 9768
Non-critical_ROB_Stalls_Percent_2_Bucket_5: 1021
Critical_ROB_Stalls_Percent_2_Bucket_6: 17347
Non-critical_ROB_Stalls_Percent_2_Bucket_6: 1785
Critical_ROB_Stalls_Percent_3_Bucket_0: 1422852
Non-critical_ROB_Stalls_Percent_3_Bucket_0: 1073597
Critical_ROB_Stalls_Percent_3_Bucket_1: 566658
Non-critical_ROB_Stalls_Percent_3_Bucket_1: 123453
Critical_ROB_Stalls_Percent_3_Bucket_2: 199227
Non-critical_ROB_Stalls_Percent_3_Bucket_2: 25235
Critical_ROB_Stalls_Percent_3_Bucket_3: 52414
Non-critical_ROB_Stalls_Percent_3_Bucket_3: 3888
Critical_ROB_Stalls_Percent_3_Bucket_4: 18162
Non-critical_ROB_Stalls_Percent_3_Bucket_4: 1536
Critical_ROB_Stalls_Percent_3_Bucket_5: 9778
Non-critical_ROB_Stalls_Percent_3_Bucket_5: 1011
Critical_ROB_Stalls_Percent_3_Bucket_6: 17353
Non-critical_ROB_Stalls_Percent_3_Bucket_6: 1779
Critical_ROB_Stalls_Percent_4_Bucket_0: 1567864
Non-critical_ROB_Stalls_Percent_4_Bucket_0: 928585
Critical_ROB_Stalls_Percent_4_Bucket_1: 590339
Non-critical_ROB_Stalls_Percent_4_Bucket_1: 99772
Critical_ROB_Stalls_Percent_4_Bucket_2: 204417
Non-critical_ROB_Stalls_Percent_4_Bucket_2: 20045
Critical_ROB_Stalls_Percent_4_Bucket_3: 53202
Non-critical_ROB_Stalls_Percent_4_Bucket_3: 3100
Critical_ROB_Stalls_Percent_4_Bucket_4: 18422
Non-critical_ROB_Stalls_Percent_4_Bucket_4: 1276
Critical_ROB_Stalls_Percent_4_Bucket_5: 9870
Non-critical_ROB_Stalls_Percent_4_Bucket_5: 919
Critical_ROB_Stalls_Percent_4_Bucket_6: 17860
Non-critical_ROB_Stalls_Percent_4_Bucket_6: 1272
Critical_ROB_Stalls_Percent_5_Bucket_0: 1710053
Non-critical_ROB_Stalls_Percent_5_Bucket_0: 786396
Critical_ROB_Stalls_Percent_5_Bucket_1: 616199
Non-critical_ROB_Stalls_Percent_5_Bucket_1: 73912
Critical_ROB_Stalls_Percent_5_Bucket_2: 211680
Non-critical_ROB_Stalls_Percent_5_Bucket_2: 12782
Critical_ROB_Stalls_Percent_5_Bucket_3: 53820
Non-critical_ROB_Stalls_Percent_5_Bucket_3: 2482
Critical_ROB_Stalls_Percent_5_Bucket_4: 18481
Non-critical_ROB_Stalls_Percent_5_Bucket_4: 1217
Critical_ROB_Stalls_Percent_5_Bucket_5: 9882
Non-critical_ROB_Stalls_Percent_5_Bucket_5: 907
Critical_ROB_Stalls_Percent_5_Bucket_6: 17947
Non-critical_ROB_Stalls_Percent_5_Bucket_6: 1185
Critical_ROB_Stalls_Percent_6_Bucket_0: 1865506
Non-critical_ROB_Stalls_Percent_6_Bucket_0: 630943
Critical_ROB_Stalls_Percent_6_Bucket_1: 633672
Non-critical_ROB_Stalls_Percent_6_Bucket_1: 56439
Critical_ROB_Stalls_Percent_6_Bucket_2: 214185
Non-critical_ROB_Stalls_Percent_6_Bucket_2: 10277
Critical_ROB_Stalls_Percent_6_Bucket_3: 53913
Non-critical_ROB_Stalls_Percent_6_Bucket_3: 2389
Critical_ROB_Stalls_Percent_6_Bucket_4: 18545
Non-critical_ROB_Stalls_Percent_6_Bucket_4: 1153
Critical_ROB_Stalls_Percent_6_Bucket_5: 10083
Non-critical_ROB_Stalls_Percent_6_Bucket_5: 706
Critical_ROB_Stalls_Percent_6_Bucket_6: 17997
Non-critical_ROB_Stalls_Percent_6_Bucket_6: 1135
Critical_ROB_Stalls_Percent_7_Bucket_0: 2020173
Non-critical_ROB_Stalls_Percent_7_Bucket_0: 476276
Critical_ROB_Stalls_Percent_7_Bucket_1: 650985
Non-critical_ROB_Stalls_Percent_7_Bucket_1: 39126
Critical_ROB_Stalls_Percent_7_Bucket_2: 217053
Non-critical_ROB_Stalls_Percent_7_Bucket_2: 7409
Critical_ROB_Stalls_Percent_7_Bucket_3: 54431
Non-critical_ROB_Stalls_Percent_7_Bucket_3: 1871
Critical_ROB_Stalls_Percent_7_Bucket_4: 18750
Non-critical_ROB_Stalls_Percent_7_Bucket_4: 948
Critical_ROB_Stalls_Percent_7_Bucket_5: 10157
Non-critical_ROB_Stalls_Percent_7_Bucket_5: 632
Critical_ROB_Stalls_Percent_7_Bucket_6: 18081
Non-critical_ROB_Stalls_Percent_7_Bucket_6: 1051
Critical_ROB_Stalls_Percent_8_Bucket_0: 2186064
Non-critical_ROB_Stalls_Percent_8_Bucket_0: 310385
Critical_ROB_Stalls_Percent_8_Bucket_1: 659596
Non-critical_ROB_Stalls_Percent_8_Bucket_1: 30515
Critical_ROB_Stalls_Percent_8_Bucket_2: 217983
Non-critical_ROB_Stalls_Percent_8_Bucket_2: 6479
Critical_ROB_Stalls_Percent_8_Bucket_3: 54653
Non-critical_ROB_Stalls_Percent_8_Bucket_3: 1649
Critical_ROB_Stalls_Percent_8_Bucket_4: 18755
Non-critical_ROB_Stalls_Percent_8_Bucket_4: 943
Critical_ROB_Stalls_Percent_8_Bucket_5: 10158
Non-critical_ROB_Stalls_Percent_8_Bucket_5: 631
Critical_ROB_Stalls_Percent_8_Bucket_6: 18081
Non-critical_ROB_Stalls_Percent_8_Bucket_6: 1051
Average ROB occupancy Load Stall Begin: 36.665
Average ROB occupancy Load Stall End: 44.6627
Min ROB occupancy Load Stall Begin: 1
Max ROB occupancy Load Stall Begin: 352
Min ROB occupancy Load Stall End: 1
Max ROB occupancy Load Stall End: 352
Average ROB occupancy Critical Load Stall Begin: 140.572
Average ROB occupancy Critical Load Stall End: 151.639
Min ROB occupancy Critical Load Stall Begin: 5
Max ROB occupancy Critical Load Stall Begin: 352
Min ROB occupancy Critical Load Stall End: 5
Max ROB occupancy Critical Load Stall End: 352
 ROB Load Stall Begin Bucket Count 0: 2728911
 ROB Load Stall End Bucket Count 0: 2496449
 ROB Critical Load Stall Begin Bucket Count 0: 3239
 ROB Critical Load Stall End Bucket Count 0: 2510
 ROB Load Stall Begin Bucket Count 1: 532825
 ROB Load Stall End Bucket Count 1: 690111
 ROB Critical Load Stall Begin Bucket Count 1: 57586
 ROB Critical Load Stall End Bucket Count 1: 51164
 ROB Load Stall Begin Bucket Count 2: 168284
 ROB Load Stall End Bucket Count 2: 224462
 ROB Critical Load Stall Begin Bucket Count 2: 20054
 ROB Critical Load Stall End Bucket Count 2: 24319
 ROB Load Stall Begin Bucket Count 3: 42776
 ROB Load Stall End Bucket Count 3: 56302
 ROB Critical Load Stall Begin Bucket Count 3: 6078
 ROB Critical Load Stall End Bucket Count 3: 8337
 ROB Load Stall Begin Bucket Count 4: 16645
 ROB Load Stall End Bucket Count 4: 19698
 ROB Critical Load Stall Begin Bucket Count 4: 5442
 ROB Critical Load Stall End Bucket Count 4: 5555
 ROB Load Stall Begin Bucket Count 5: 9860
 ROB Load Stall End Bucket Count 5: 10789
 ROB Critical Load Stall Begin Bucket Count 5: 5057
 ROB Critical Load Stall End Bucket Count 5: 5123
 ROB Load Stall Begin Bucket Count 6: 17642
 ROB Load Stall End Bucket Count 6: 19132
 ROB Critical Load Stall Begin Bucket Count 6: 14898
 ROB Critical Load Stall End Bucket Count 6: 15346
PIST Tag Read Accesses: 2335412
PIST Read Accesses: 1167706
PIST Tag Write Accesses: 2335412
PIST Write Accesses: 1167706
Criticality detector called times: 3404589
Max global_stall_cycles_count: 1962165
Threshold Modified: 1 times, factor: -1
Sturdy critical IP cache stats: 
 Unused entries: 0
CIC Tag Read Accesses: 0
CIC Read Accesses: 0
CIC Tag Write Accesses: 0
CIC Write Accesses: 0
Wobbly critical IP cache stats: 
 Unused entries: 125
CIC Tag Read Accesses: 85649747
CIC Read Accesses: 0
CIC Tag Write Accesses: 3
CIC Write Accesses: 0
ITLB TOTAL     ACCESS:   10115359  HIT:    9444270  MISS:     671089  HIT %:    93.3656  MISS %:    6.63436   MPKI: 13.4218
ITLB LOAD TRANSLATION ACCESS:    8110357  HIT:    8019588  MISS:      90769  HIT %:    98.8808  MISS %:    1.11917   MPKI: 1.81538
ITLB TRANSLATION FROM L1D PREFETCHER ACCESS:    2005002  HIT:    1424682  MISS:     580320  HIT %:    71.0564  MISS %:    28.9436   MPKI: 11.6064
ITLB PREFETCH  REQUESTED:          0  ISSUED:          0  USEFUL:     461336  USELESS:     118984
ITLB USEFUL LOAD PREFETCHES:     461336 PREFETCH ISSUED TO LOWER LEVEL:          0  ACCURACY: inf
ITLB TIMELY PREFETCHES:     461336 LATE PREFETCHES: 309 DROPPED PREFETCHES: 3827
ITLB PREFETCHES SAME FILL-ORIGIN LEVEL: 0 DIFFERENT FILL-ORIGIN LEVEL: 0
ITLB AVERAGE MISS LATENCY: 19468.6 cycles
ITLB RQ	ACCESS:   15180060	FORWARD:          0	MERGED:    5015500	TO_CACHE:   10164560

DTLB TOTAL     ACCESS:   11548798  HIT:   11071572  MISS:     477226  HIT %:    95.8677  MISS %:    4.13226   MPKI: 9.54452
DTLB LOAD TRANSLATION ACCESS:   11548798  HIT:   11071572  MISS:     477226  HIT %:    95.8677  MISS %:    4.13226   MPKI: 9.54452
DTLB PREFETCH  REQUESTED:          0  ISSUED:          0  USEFUL:          0  USELESS:          0
DTLB USEFUL LOAD PREFETCHES:          0 PREFETCH ISSUED TO LOWER LEVEL:          0  ACCURACY: -nan
DTLB TIMELY PREFETCHES:          0 LATE PREFETCHES: 0 DROPPED PREFETCHES: 0
DTLB PREFETCHES SAME FILL-ORIGIN LEVEL: 0 DIFFERENT FILL-ORIGIN LEVEL: 0
DTLB AVERAGE MISS LATENCY: 9.23433 cycles
DTLB RQ	ACCESS:   15015535	FORWARD:          0	MERGED:    3440500	TO_CACHE:   11575035

STLB TOTAL     ACCESS:    1170925  HIT:    1168817  MISS:       2108  HIT %:      99.82  MISS %:   0.180029   MPKI: 0.04216
STLB LOAD TRANSLATION ACCESS:     567686  HIT:     565668  MISS:       2018  HIT %:    99.6445  MISS %:   0.355478   MPKI: 0.04036
STLB TRANSLATION FROM L1D PREFETCHER ACCESS:     603239  HIT:     603149  MISS:         90  HIT %:    99.9851  MISS %:  0.0149195   MPKI: 0.0018
STLB PREFETCH  REQUESTED:          0  ISSUED:          0  USEFUL:         82  USELESS:          9
STLB USEFUL LOAD PREFETCHES:         82 PREFETCH ISSUED TO LOWER LEVEL:          0  ACCURACY: inf
STLB TIMELY PREFETCHES:         82 LATE PREFETCHES: 0 DROPPED PREFETCHES: 3827
STLB PREFETCHES SAME FILL-ORIGIN LEVEL: 0 DIFFERENT FILL-ORIGIN LEVEL: 0
STLB AVERAGE MISS LATENCY: 54.2694 cycles
STLB RQ	ACCESS:    1181141	FORWARD:          0	MERGED:       6389	TO_CACHE:    1174752

STLB Hit, L1D data hit: 0
STLB Hit, L2C data hit: 0
STLB Hit, LLC data hit: 0
STLB Hit, LLC data miss: 0
STLB STLB hints to L2: 0
L1D TOTAL     ACCESS:   14528548  HIT:   13458948  MISS:    1069600  HIT %:    92.6379  MISS %:    7.36206   MPKI: 21.392
L1D LOAD      ACCESS:    8155813  HIT:    7387134  MISS:     768679  HIT %:    90.5751  MISS %:    9.42492   MPKI: 15.3736
L1D RFO       ACCESS:    6348390  HIT:    6056852  MISS:     291538  HIT %:    95.4077  MISS %:    4.59231   MPKI: 5.83076
L1D PREFETCH  ACCESS:      24345  HIT:      14962  MISS:       9383  HIT %:    61.4582  MISS %:    38.5418   MPKI: 0.18766
L1D PREFETCH  REQUESTED:      57998  ISSUED:      57998  USEFUL:       5064  USELESS:       4319
L1D USEFUL LOAD PREFETCHES:       5064 PREFETCH ISSUED TO LOWER LEVEL:      12473  ACCURACY: 40.5997
L1D TIMELY PREFETCHES:       5064 LATE PREFETCHES: 3085 DROPPED PREFETCHES: 0
L1D PREFETCHES SAME FILL-ORIGIN LEVEL: 12473 DIFFERENT FILL-ORIGIN LEVEL: 0
L1D AVERAGE MISS LATENCY: 104372 cycles
L1D RQ	ACCESS:   11656610	FORWARD:          0	MERGED:    3334957	TO_CACHE:    8184516
L1D WQ	ACCESS:    6901339	FORWARD:     137137	MERGED:      70320	TO_CACHE:    6831019
L1D PQ	ACCESS:      28999	FORWARD:          0	MERGED:          0	TO_CACHE:      28999

L1D UNIQUE REGIONS ACCESSED: 0
L1D REGIONS CONFLICTS: 0
L1D Cross Page Prefetch Requests: 0
L1D Same Page Prefetch Requests: 29714
L1D ROI Sum of L1D PQ occupancy: 399409
L1D PREFETCHES PUSHED FROM L2C: 0
L1I TOTAL     ACCESS:   15028477  HIT:   10906899  MISS:    4121578  HIT %:    72.5749  MISS %:    27.4251   MPKI: 82.4316
L1I LOAD      ACCESS:    9551545  HIT:    9275939  MISS:     275606  HIT %:    97.1145  MISS %:    2.88546   MPKI: 5.51212
L1I PREFETCH  ACCESS:    5476932  HIT:    1630960  MISS:    3845972  HIT %:    29.7787  MISS %:    70.2213   MPKI: 76.9194
L1I PREFETCH  REQUESTED:    5734335  ISSUED:    5722765  USEFUL:    2598369  USELESS:    1247624
L1I USEFUL LOAD PREFETCHES:    2598369 PREFETCH ISSUED TO LOWER LEVEL:    3877844  ACCURACY: 67.0055
L1I TIMELY PREFETCHES:    2598369 LATE PREFETCHES: 31873 DROPPED PREFETCHES: 9285
L1I PREFETCHES SAME FILL-ORIGIN LEVEL: 3877844 DIFFERENT FILL-ORIGIN LEVEL: 0
L1I AVERAGE MISS LATENCY: 419199 cycles
L1I RQ	ACCESS:   13496337	FORWARD:          0	MERGED:    3920767	TO_CACHE:    9575570
L1I PQ	ACCESS:    5722765	FORWARD:          0	MERGED:     118275	TO_CACHE:    5604490

BTB TOTAL     ACCESS:    5981441  HIT:    3992143  MISS:    1989298  HIT %:    66.7422  MISS %:    33.2578   MPKI: 39.786
BTB BRANCH_DIRECT_JUMP	ACCESS:     522043  HIT:     347789  MISS:     174254
BTB BRANCH_INDIRECT	ACCESS:     204034  HIT:     166604  MISS:      37430
BTB BRANCH_CONDITIONAL	ACCESS:    3043077  HIT:    2486506  MISS:     556571
BTB BRANCH_DIRECT_CALL	ACCESS:     932385  HIT:     529353  MISS:     403032
BTB BRANCH_INDIRECT_CALL	ACCESS:     173762  HIT:      95752  MISS:      78010
BTB BRANCH_RETURN	ACCESS:    1106140  HIT:     366139  MISS:     740001
BTB BRANCH_OTHER ACCESS:          0  HIT:          0  MISS:          0

L2C TOTAL     ACCESS:    5712223  HIT:    5145827  MISS:     566396  HIT %:    90.0845  MISS %:    9.91551   MPKI: 11.3279
L2C LOAD      ACCESS:    1009263  HIT:     842819  MISS:     166444  HIT %:    83.5084  MISS %:    16.4916   MPKI: 3.32888
L2C DATA LOAD MPKI: 2.63006
L2C INSTRUCTION LOAD MPKI: 0.69882
L2C RFO       ACCESS:     291532  HIT:     219671  MISS:      71861  HIT %:    75.3506  MISS %:    24.6494   MPKI: 1.43722
L2C PREFETCH  ACCESS:    3890316  HIT:    3591708  MISS:     298608  HIT %:    92.3243  MISS %:    7.67567   MPKI: 5.97216
L2C DATA PREFETCH MPKI: 0.16544
L2C INSTRUCTION PREFETCH MPKI: 5.80672
L2C WRITEBACK ACCESS:     512445  HIT:     484524  MISS:      27921  HIT %:    94.5514  MISS %:    5.44858   MPKI: 0.55842
L2C LOAD TRANSLATION ACCESS:       2127  HIT:        716  MISS:       1411  HIT %:    33.6624  MISS %:    66.3376   MPKI: 0.02822
L2C TRANSLATION FROM L1D PREFETCHER ACCESS:       6540  HIT:       6389  MISS:        151  HIT %:    97.6911  MISS %:    2.30887   MPKI: 0.00302
L2C PREFETCH  REQUESTED:          0  ISSUED:          0  USEFUL:       6258  USELESS:     292630
L2C USEFUL LOAD PREFETCHES:       6258 PREFETCH ISSUED TO LOWER LEVEL:     298608  ACCURACY: 2.09572
L2C TIMELY PREFETCHES:       6258 LATE PREFETCHES: 0 DROPPED PREFETCHES: 0
L2C PREFETCHES SAME FILL-ORIGIN LEVEL: 0 DIFFERENT FILL-ORIGIN LEVEL: 0
L2C AVERAGE MISS LATENCY: 34.4199 cycles
L2C RQ	ACCESS:    1309527	FORWARD:          0	MERGED:          0	TO_CACHE:    1309462
L2C WQ	ACCESS:     512445	FORWARD:         66	MERGED:          0	TO_CACHE:     512445
L2C PQ	ACCESS:    3890317	FORWARD:          0	MERGED:          0	TO_CACHE:    3890316

L2C Instructions Evicting Data 124507
L2C Translations Evicting Data 982
L2C Data Evicting Data 102741
L2C Instructions Evicting Instructions 200253
L2C Translations Evicting Instructions 522
L2C Data Evicting Instructions 107921
L2C Instructions Evicting Translations 517
L2C Translations Evicting Translations 58
L2C Data Evicting Translations 974
L2C Dense regions hint from L2: 0
PSCL5 TOTAL     ACCESS:       5935  HIT:       5935  MISS:          0  HIT %:        100  MISS %:          0   MPKI: 0
PSCL5 LOAD TRANSLATION ACCESS:       2018  HIT:       2018  MISS:          0  HIT %:        100  MISS %:          0   MPKI: 0
PSCL5 TRANSLATION FROM L1D PREFETCHER ACCESS:       3917  HIT:       3917  MISS:          0  HIT %:        100  MISS %:          0   MPKI: 0
PSCL5 PREFETCH  REQUESTED:          0  ISSUED:          0  USEFUL:          0  USELESS:          0
PSCL5 USEFUL LOAD PREFETCHES:          0 PREFETCH ISSUED TO LOWER LEVEL:          0  ACCURACY: -nan
PSCL5 TIMELY PREFETCHES:          0 LATE PREFETCHES: 0 DROPPED PREFETCHES: 0
PSCL5 PREFETCHES SAME FILL-ORIGIN LEVEL: 0 DIFFERENT FILL-ORIGIN LEVEL: 0

PSCL4 TOTAL     ACCESS:       5846  HIT:       5839  MISS:          7  HIT %:    99.8803  MISS %:    0.11974   MPKI: 0.00014
PSCL4 LOAD TRANSLATION ACCESS:       1936  HIT:       1929  MISS:          7  HIT %:    99.6384  MISS %:    0.36157   MPKI: 0.00014
PSCL4 TRANSLATION FROM L1D PREFETCHER ACCESS:       3910  HIT:       3910  MISS:          0  HIT %:        100  MISS %:          0   MPKI: 0
PSCL4 PREFETCH  REQUESTED:          0  ISSUED:          0  USEFUL:          0  USELESS:          0
PSCL4 USEFUL LOAD PREFETCHES:          0 PREFETCH ISSUED TO LOWER LEVEL:          0  ACCURACY: -nan
PSCL4 TIMELY PREFETCHES:          0 LATE PREFETCHES: 0 DROPPED PREFETCHES: 0
PSCL4 PREFETCHES SAME FILL-ORIGIN LEVEL: 0 DIFFERENT FILL-ORIGIN LEVEL: 0

PSCL3 TOTAL     ACCESS:       5880  HIT:       5873  MISS:          7  HIT %:     99.881  MISS %:   0.119048   MPKI: 0.00014
PSCL3 LOAD TRANSLATION ACCESS:       1970  HIT:       1963  MISS:          7  HIT %:    99.6447  MISS %:    0.35533   MPKI: 0.00014
PSCL3 TRANSLATION FROM L1D PREFETCHER ACCESS:       3910  HIT:       3910  MISS:          0  HIT %:        100  MISS %:          0   MPKI: 0
PSCL3 PREFETCH  REQUESTED:          0  ISSUED:          0  USEFUL:          0  USELESS:          0
PSCL3 USEFUL LOAD PREFETCHES:          0 PREFETCH ISSUED TO LOWER LEVEL:          0  ACCURACY: -nan
PSCL3 TIMELY PREFETCHES:          0 LATE PREFETCHES: 0 DROPPED PREFETCHES: 0
PSCL3 PREFETCHES SAME FILL-ORIGIN LEVEL: 0 DIFFERENT FILL-ORIGIN LEVEL: 0

PSCL2 TOTAL     ACCESS:       3329  HIT:       3218  MISS:        111  HIT %:    96.6657  MISS %:    3.33433   MPKI: 0.00222
PSCL2 LOAD TRANSLATION ACCESS:       2033  HIT:       1922  MISS:        111  HIT %:    94.5401  MISS %:    5.45991   MPKI: 0.00222
PSCL2 TRANSLATION FROM L1D PREFETCHER ACCESS:       1296  HIT:       1296  MISS:          0  HIT %:        100  MISS %:          0   MPKI: 0
PSCL2 PREFETCH  REQUESTED:          0  ISSUED:          0  USEFUL:          0  USELESS:          0
PSCL2 USEFUL LOAD PREFETCHES:          0 PREFETCH ISSUED TO LOWER LEVEL:          0  ACCURACY: -nan
PSCL2 TIMELY PREFETCHES:          0 LATE PREFETCHES: 0 DROPPED PREFETCHES: 0
PSCL2 PREFETCHES SAME FILL-ORIGIN LEVEL: 0 DIFFERENT FILL-ORIGIN LEVEL: 0

LLC TOTAL     ACCESS:     640752  HIT:     620876  MISS:      19876  HIT %:     96.898  MISS %:    3.10198   MPKI: 0.39752
LLC LOAD      ACCESS:     166443  HIT:     159896  MISS:       6547  HIT %:    96.0665  MISS %:    3.93348   MPKI: 0.13094
LLC RFO       ACCESS:      71861  HIT:      61951  MISS:       9910  HIT %:    86.2095  MISS %:    13.7905   MPKI: 0.1982
LLC PREFETCH  ACCESS:     298607  HIT:     295468  MISS:       3139  HIT %:    98.9488  MISS %:    1.05121   MPKI: 0.06278
LLC WRITEBACK ACCESS:     102279  HIT:     102077  MISS:        202  HIT %:    99.8025  MISS %:   0.197499   MPKI: 0.00404
LLC LOAD TRANSLATION ACCESS:       1411  HIT:       1344  MISS:         67  HIT %:    95.2516  MISS %:    4.74841   MPKI: 0.00134
LLC TRANSLATION FROM L1D PREFETCHER ACCESS:        151  HIT:        140  MISS:         11  HIT %:    92.7152  MISS %:    7.28477   MPKI: 0.00022
LLC PREFETCH  REQUESTED:          0  ISSUED:          0  USEFUL:        143  USELESS:       1531
LLC USEFUL LOAD PREFETCHES:        143 PREFETCH ISSUED TO LOWER LEVEL:       3139  ACCURACY: 4.55559
LLC TIMELY PREFETCHES:        143 LATE PREFETCHES: 0 DROPPED PREFETCHES: 0
LLC PREFETCHES SAME FILL-ORIGIN LEVEL: 0 DIFFERENT FILL-ORIGIN LEVEL: 0
LLC AVERAGE MISS LATENCY: 167.615 cycles
LLC RQ	ACCESS:     239867	FORWARD:          0	MERGED:          0	TO_CACHE:     239866
LLC WQ	ACCESS:     102279	FORWARD:          2	MERGED:          0	TO_CACHE:     102279
LLC PQ	ACCESS:     298608	FORWARD:          0	MERGED:          0	TO_CACHE:     298607

LLC Dense regions hint to LLC: 0

RAW hits: 959210
Loads Generated: 12615820
Loads sent to L1D: 11656610
Stores Generated: 6901350
Stores sent to L1D: 6901339
Major fault: 0 Minor fault: 2264
Allocated PAGES: 2264
I-Shadow cache 408 bytes
Touched + WorthPF tables 6144 bytes 
MMA filter 174 bytes 
FNL filter 272 bytes 
TOTAL PREFETCHER STORAGE SIZE: 25174 bytes
CPU 0 L1I next line prefetcher final stats

stream: 
stream:times selected: 73627
stream:pref_filled: 2827
stream:pref_useful: 564
stream:pref_late: 1255
stream:misses: 229
stream:misses_by_poll: 0

CS: 
CS:times selected: 14610
CS:pref_filled: 5539
CS:pref_useful: 4255
CS:pref_late: 1645
CS:misses: 2886
CS:misses_by_poll: 2

CPLX: 
CPLX:times selected: 58667
CPLX:pref_filled: 1367
CPLX:pref_useful: 303
CPLX:pref_late: 61
CPLX:misses: 2422
CPLX:misses_by_poll: 1

NL_L1: 
NL:times selected: 1309
NL:pref_filled: 9
NL:pref_useful: 3
NL:pref_late: 0
NL:misses: 10
NL:misses_by_poll: 0

total selections: 148213
total_filled: 9383
total_useful: 5064
total_late: 3122
total_polluted: 3
total_misses_after_warmup: 33351
conflicts: 133436
Degree Incremented Times: 44
Degree Decremented Times: 4080

L1 IP Table Write Accesses: 325229
L1 IP Table Read Accesses: 191793
L1 RST Write Accesses: 73217
L1 RST Read Accesses: 146434
L1 CSPT Write Accesses: 73217
L1 CSPT Read Accesses: 135946
L1 RR Filter Tag Write Accesses: 28999
L1 RR Filter Tag Read Accesses: 3436846
L1 IP Table Tag Write Accesses: 467260
L1 IP Table Tag Read Accesses: 467260
L1 RST Tag Write Accesses: 0
L1 RST Tag Read Accesses: 619784
L1 RR Filter Write Accesses: 0
L1 RR Filter Read Accesses: 126722
test: 8381

DRAM Statistics
 CHANNEL 0
 RQ ROW_BUFFER_HIT:       6637  ROW_BUFFER_MISS:      13027
 DBUS_CONGESTED:          3
 WQ ROW_BUFFER_HIT:       1223  ROW_BUFFER_MISS:       8782  FULL:          0

 AVG_CONGESTED_CYCLE: 5
 All warmup complete: 2
Channel 0 Bank busy for read cycles: 0
Channel 0 Bank busy for write cycles: 0
Channel 0
Rank 0
0banks busy for read cycles: 79442209
0banks busy for write cycles: 2789
1banks busy for read cycles: 1016628
1banks busy for write cycles: 385935
2banks busy for read cycles: 124003
2banks busy for write cycles: 114924
3banks busy for read cycles: 60363
3banks busy for write cycles: 69489
4banks busy for read cycles: 32815
4banks busy for write cycles: 41495
5banks busy for read cycles: 25632
5banks busy for write cycles: 38481
6banks busy for read cycles: 21848
6banks busy for write cycles: 32628
7banks busy for read cycles: 21582
7banks busy for write cycles: 33121
8banks busy for read cycles: 40054
8banks busy for write cycles: 80636

CPU 0 Branch Prediction Accuracy: 99.822% MPKI: 0.32584 Average ROB Occupancy at Mispredict: 74.545
Branch types
NOT_BRANCH: 40848387 81.6968%
BRANCH_DIRECT_JUMP: 522043 1.04409%
BRANCH_INDIRECT: 204034 0.408068%
BRANCH_CONDITIONAL: 6212933 12.4259%
BRANCH_DIRECT_CALL: 932385 1.86477%
BRANCH_INDIRECT_CALL: 173762 0.347524%
BRANCH_RETURN: 1106140 2.21228%
BRANCH_OTHER: 0 0%

DRAM PAGES: 1048576
Allocated PAGES: 2264
