
*** ChampSim Multicore Out-of-Order Simulator ***

Warmup Instructions: 50000000
Simulation Instructions: 50000000
Number of CPUs: 1
LLC sets: 2048
LLC ways: 16
Off-chip DRAM Size: 4096 MB Channels: 1 Width: 64-bit Data Rate: 6400 MT/s
CPU 0 runs ../IPC-traces//server_031.champsimtrace.xz
.xz
NUM_OF_IPS_IN_CRITICAL_IP_TRAINING: 64
NUM_OF_CRITICAL_IP_TRAINING_TABLE_WAYS: 2
NUM_OF_CRITICAL_IP_TRAINING_TABLE_SETS: 32
WOBBLY_CRITICAL_IP_CACHE_SETS: 32
WOBBLY_CRITICAL_IP_CACHE_WAYS: 4
BTB has LRU replacement policy
ITLB has LRU replacement policy
DTLB has LRU replacement policy
STLB has LRU replacement policy
CPU 0 L1I next line prefetcher
L1I has LRU replacement policy
IP Table Entries: 64
L1D has LRU replacement policy
Initialize SRRIP state for L2C
Initialize DRRIP state for LLC
Heartbeat CPU 0 instructions: 10000000 cycles: 2883590 heartbeat IPC: 3.4679 cumulative IPC: 3.4679 (Simulation time: 0 hr 2 min 14 sec) 
Heartbeat CPU 0 instructions: 20000000 cycles: 5763284 heartbeat IPC: 3.47259 cumulative IPC: 3.47024 (Simulation time: 0 hr 4 min 32 sec) 
Heartbeat CPU 0 instructions: 30000002 cycles: 8641175 heartbeat IPC: 3.47477 cumulative IPC: 3.47175 (Simulation time: 0 hr 6 min 52 sec) 
Heartbeat CPU 0 instructions: 40000003 cycles: 11519188 heartbeat IPC: 3.47462 cumulative IPC: 3.47247 (Simulation time: 0 hr 9 min 11 sec) 
Heartbeat CPU 0 instructions: 50000001 cycles: 14399617 heartbeat IPC: 3.4717 cumulative IPC: 3.47231 (Simulation time: 0 hr 11 min 14 sec) 

Warmup complete CPU 0 instructions: 50000001 cycles: 14399617 (Simulation time: 0 hr 11 min 14 sec) 

% increase in all ip prefetch 419.704
% increase in all ip prefetch -2.2899
Heartbeat CPU 0 instructions: 60000002 cycles: 30804331 heartbeat IPC: 0.609581 cumulative IPC: 0.609581 (Simulation time: 0 hr 13 min 45 sec) 
Heartbeat CPU 0 instructions: 70000001 cycles: 47244737 heartbeat IPC: 0.608257 cumulative IPC: 0.608918 (Simulation time: 0 hr 16 min 20 sec) 
*** Reached end of trace for Core: 0 Repeating trace: ../IPC-traces//server_031.champsimtrace.xz
Heartbeat CPU 0 instructions: 80000000 cycles: 63505167 heartbeat IPC: 0.61499 cumulative IPC: 0.610929 (Simulation time: 0 hr 18 min 53 sec) 
Heartbeat CPU 0 instructions: 90000000 cycles: 79760647 heartbeat IPC: 0.615177 cumulative IPC: 0.611985 (Simulation time: 0 hr 21 min 28 sec) 
Heartbeat CPU 0 instructions: 100000000 cycles: 95948998 heartbeat IPC: 0.617728 cumulative IPC: 0.613125 (Simulation time: 0 hr 25 min 0 sec) 
Finished CPU 0 instructions: 50000000 cycles: 81549387 cumulative IPC: 0.613125 (Simulation time: 0 hr 25 min 0 sec) 

ChampSim completed all CPUs

Region of Interest Statistics

CPU 0 cumulative IPC: 0.613125 instructions: 50000000 cycles: 81549387

CPU 0 Average Load ROB stall cycles: 1.96092e+07
CPU 0 Fraction of times ROB stalled by Loads: 35.4518
CPU 0 Percentage of Load stall cycles in Total stall cycles: 2.71727e+08
Issued all: 27889572
Issued LT all: 22030412
rob_not_full_when_issued_lt_all: 21909726
Issued LT one: 17107391
rob_not_full_when_issued_lt_one: 17003164
critical_ip_candidate_identification_operations: 6790230
critical_ip_candidate_identification_operation_per_cycle: 0.0832653
 Total stall cycles: 69110294
 Total load stall cycles: 187791579850640
Unique Load IPs: 12877
CPU 0 NUM of IPS identified critical: 5
CPU 0 Num of Load IPs stalling ROB: 10843
Threshold modification factor: -1
Max PIST entries: 64
Min PIST entries: 0
Avg PIST entries: 32
Trouble in retire width: 0.894888
MaC = Marked as critical.
lt_50_percent_before_Mac: 5
gt_90_percent_before_Mac: 0
gt_75_percent_before_Mac: 0
gt_50_percent_before_Mac: 0
stall_proportion_bin_same_before_after: 0
stall_proportion_bin_lower_before_after: 0
stall_proportion_bin_upper_before_after: 0
average_stall_proportion_before: 0.111199
average_stall_proportion_after: 0.112062
Critical IP stalls, total frequency: 100465
Non-critical IP stalls, total frequency: 3294650
Total Freq all stalling IPs: 3395115
Critical_IP_Detector_Accuracy_70: 0.8
Critical_IP_Detector_Accuracy_80: 0.8
Critical_IP_Detector_Accuracy_90: 0.8
Critical_IP_Detector_Coverage_70: 0.00305344
Critical_IP_Detector_Coverage_80: 0.00229095
Critical_IP_Detector_Coverage_90: 0.00178731
stat_90_percent_critical_ip_stalls_freq: 3055798
stat_90_percent_non_critical_ip_stalls_freq: 339317
AVERAGE_ROB_Occupancy_90_Percent_Critical_IP_Stalls: 47.5311
AVERAGE_ROB_Occupancy_90_Percent_Non_Critical_IP_Stalls: 35.1055
Critical_IP_ROB_Stalls_Bucket_0: 6883
Non-critical_IP_ROB_Stalls_Bucket_0: 2327728
Critical_IP_ROB_Stalls_Bucket_1: 22380
Non-critical_IP_ROB_Stalls_Bucket_1: 690004
Critical_IP_ROB_Stalls_Bucket_2: 40893
Non-critical_IP_ROB_Stalls_Bucket_2: 200079
Critical_IP_ROB_Stalls_Bucket_3: 14741
Non-critical_IP_ROB_Stalls_Bucket_3: 51928
Critical_IP_ROB_Stalls_Bucket_4: 6503
Non-critical_IP_ROB_Stalls_Bucket_4: 18025
Critical_IP_ROB_Stalls_Bucket_5: 3217
Non-critical_IP_ROB_Stalls_Bucket_5: 5021
Critical_IP_ROB_Stalls_Bucket_6: 5848
Non-critical_IP_ROB_Stalls_Bucket_6: 1865
0 => IPs accounting for >50 percent of stalls, 1 => 55, 2 => 60, 3 => 65 and so on till 90.
percent50: 50.0101 num IPs:  480
percent55: 55.0029 num IPs: 678
percent60: 60.0242 num IPs: 884
percent65: 65.0194 num IPs: 1095
percent70: 70.0038 num IPs: 1310
percent75: 75.0021 num IPs: 1526
percent80: 80.0103 num IPs: 1746
percent85: 85.0095 num IPs: 1975
percent90: 90.0049 num IPs: 2238
Critical_ROB_Stalls_Percent_0_Bucket_0: 974329
Non-critical_ROB_Stalls_Percent_0_Bucket_0: 1360282
Critical_ROB_Stalls_Percent_0_Bucket_1: 441903
Non-critical_ROB_Stalls_Percent_0_Bucket_1: 270481
Critical_ROB_Stalls_Percent_0_Bucket_2: 185319
Non-critical_ROB_Stalls_Percent_0_Bucket_2: 55653
Critical_ROB_Stalls_Percent_0_Bucket_3: 60072
Non-critical_ROB_Stalls_Percent_0_Bucket_3: 6597
Critical_ROB_Stalls_Percent_0_Bucket_4: 21771
Non-critical_ROB_Stalls_Percent_0_Bucket_4: 2757
Critical_ROB_Stalls_Percent_0_Bucket_5: 7307
Non-critical_ROB_Stalls_Percent_0_Bucket_5: 931
Critical_ROB_Stalls_Percent_0_Bucket_6: 7200
Non-critical_ROB_Stalls_Percent_0_Bucket_6: 513
Critical_ROB_Stalls_Percent_1_Bucket_0: 1103213
Non-critical_ROB_Stalls_Percent_1_Bucket_0: 1231398
Critical_ROB_Stalls_Percent_1_Bucket_1: 473976
Non-critical_ROB_Stalls_Percent_1_Bucket_1: 238408
Critical_ROB_Stalls_Percent_1_Bucket_2: 192639
Non-critical_ROB_Stalls_Percent_1_Bucket_2: 48333
Critical_ROB_Stalls_Percent_1_Bucket_3: 60513
Non-critical_ROB_Stalls_Percent_1_Bucket_3: 6156
Critical_ROB_Stalls_Percent_1_Bucket_4: 22550
Non-critical_ROB_Stalls_Percent_1_Bucket_4: 1978
Critical_ROB_Stalls_Percent_1_Bucket_5: 7321
Non-critical_ROB_Stalls_Percent_1_Bucket_5: 917
Critical_ROB_Stalls_Percent_1_Bucket_6: 7201
Non-critical_ROB_Stalls_Percent_1_Bucket_6: 512
Critical_ROB_Stalls_Percent_2_Bucket_0: 1206265
Non-critical_ROB_Stalls_Percent_2_Bucket_0: 1128346
Critical_ROB_Stalls_Percent_2_Bucket_1: 529278
Non-critical_ROB_Stalls_Percent_2_Bucket_1: 183106
Critical_ROB_Stalls_Percent_2_Bucket_2: 203938
Non-critical_ROB_Stalls_Percent_2_Bucket_2: 37034
Critical_ROB_Stalls_Percent_2_Bucket_3: 61236
Non-critical_ROB_Stalls_Percent_2_Bucket_3: 5433
Critical_ROB_Stalls_Percent_2_Bucket_4: 22649
Non-critical_ROB_Stalls_Percent_2_Bucket_4: 1879
Critical_ROB_Stalls_Percent_2_Bucket_5: 7323
Non-critical_ROB_Stalls_Percent_2_Bucket_5: 915
Critical_ROB_Stalls_Percent_2_Bucket_6: 7202
Non-critical_ROB_Stalls_Percent_2_Bucket_6: 511
Critical_ROB_Stalls_Percent_3_Bucket_0: 1337230
Non-critical_ROB_Stalls_Percent_3_Bucket_0: 997381
Critical_ROB_Stalls_Percent_3_Bucket_1: 561770
Non-critical_ROB_Stalls_Percent_3_Bucket_1: 150614
Critical_ROB_Stalls_Percent_3_Bucket_2: 209921
Non-critical_ROB_Stalls_Percent_3_Bucket_2: 31051
Critical_ROB_Stalls_Percent_3_Bucket_3: 61356
Non-critical_ROB_Stalls_Percent_3_Bucket_3: 5313
Critical_ROB_Stalls_Percent_3_Bucket_4: 22680
Non-critical_ROB_Stalls_Percent_3_Bucket_4: 1848
Critical_ROB_Stalls_Percent_3_Bucket_5: 7323
Non-critical_ROB_Stalls_Percent_3_Bucket_5: 915
Critical_ROB_Stalls_Percent_3_Bucket_6: 7205
Non-critical_ROB_Stalls_Percent_3_Bucket_6: 508
Critical_ROB_Stalls_Percent_4_Bucket_0: 1479097
Non-critical_ROB_Stalls_Percent_4_Bucket_0: 855514
Critical_ROB_Stalls_Percent_4_Bucket_1: 584559
Non-critical_ROB_Stalls_Percent_4_Bucket_1: 127825
Critical_ROB_Stalls_Percent_4_Bucket_2: 214449
Non-critical_ROB_Stalls_Percent_4_Bucket_2: 26523
Critical_ROB_Stalls_Percent_4_Bucket_3: 61411
Non-critical_ROB_Stalls_Percent_4_Bucket_3: 5258
Critical_ROB_Stalls_Percent_4_Bucket_4: 22682
Non-critical_ROB_Stalls_Percent_4_Bucket_4: 1846
Critical_ROB_Stalls_Percent_4_Bucket_5: 7323
Non-critical_ROB_Stalls_Percent_4_Bucket_5: 915
Critical_ROB_Stalls_Percent_4_Bucket_6: 7205
Non-critical_ROB_Stalls_Percent_4_Bucket_6: 508
Critical_ROB_Stalls_Percent_5_Bucket_0: 1619455
Non-critical_ROB_Stalls_Percent_5_Bucket_0: 715156
Critical_ROB_Stalls_Percent_5_Bucket_1: 608097
Non-critical_ROB_Stalls_Percent_5_Bucket_1: 104287
Critical_ROB_Stalls_Percent_5_Bucket_2: 219624
Non-critical_ROB_Stalls_Percent_5_Bucket_2: 21348
Critical_ROB_Stalls_Percent_5_Bucket_3: 62002
Non-critical_ROB_Stalls_Percent_5_Bucket_3: 4667
Critical_ROB_Stalls_Percent_5_Bucket_4: 22717
Non-critical_ROB_Stalls_Percent_5_Bucket_4: 1811
Critical_ROB_Stalls_Percent_5_Bucket_5: 7330
Non-critical_ROB_Stalls_Percent_5_Bucket_5: 908
Critical_ROB_Stalls_Percent_5_Bucket_6: 7209
Non-critical_ROB_Stalls_Percent_5_Bucket_6: 504
Critical_ROB_Stalls_Percent_6_Bucket_0: 1768376
Non-critical_ROB_Stalls_Percent_6_Bucket_0: 566235
Critical_ROB_Stalls_Percent_6_Bucket_1: 625002
Non-critical_ROB_Stalls_Percent_6_Bucket_1: 87382
Critical_ROB_Stalls_Percent_6_Bucket_2: 223779
Non-critical_ROB_Stalls_Percent_6_Bucket_2: 17193
Critical_ROB_Stalls_Percent_6_Bucket_3: 62040
Non-critical_ROB_Stalls_Percent_6_Bucket_3: 4629
Critical_ROB_Stalls_Percent_6_Bucket_4: 22724
Non-critical_ROB_Stalls_Percent_6_Bucket_4: 1804
Critical_ROB_Stalls_Percent_6_Bucket_5: 7333
Non-critical_ROB_Stalls_Percent_6_Bucket_5: 905
Critical_ROB_Stalls_Percent_6_Bucket_6: 7216
Non-critical_ROB_Stalls_Percent_6_Bucket_6: 497
Critical_ROB_Stalls_Percent_7_Bucket_0: 1918263
Non-critical_ROB_Stalls_Percent_7_Bucket_0: 416348
Critical_ROB_Stalls_Percent_7_Bucket_1: 642094
Non-critical_ROB_Stalls_Percent_7_Bucket_1: 70290
Critical_ROB_Stalls_Percent_7_Bucket_2: 226393
Non-critical_ROB_Stalls_Percent_7_Bucket_2: 14579
Critical_ROB_Stalls_Percent_7_Bucket_3: 62143
Non-critical_ROB_Stalls_Percent_7_Bucket_3: 4526
Critical_ROB_Stalls_Percent_7_Bucket_4: 22755
Non-critical_ROB_Stalls_Percent_7_Bucket_4: 1773
Critical_ROB_Stalls_Percent_7_Bucket_5: 7335
Non-critical_ROB_Stalls_Percent_7_Bucket_5: 903
Critical_ROB_Stalls_Percent_7_Bucket_6: 7216
Non-critical_ROB_Stalls_Percent_7_Bucket_6: 497
Critical_ROB_Stalls_Percent_8_Bucket_0: 2067227
Non-critical_ROB_Stalls_Percent_8_Bucket_0: 267384
Critical_ROB_Stalls_Percent_8_Bucket_1: 657650
Non-critical_ROB_Stalls_Percent_8_Bucket_1: 54734
Critical_ROB_Stalls_Percent_8_Bucket_2: 229114
Non-critical_ROB_Stalls_Percent_8_Bucket_2: 11858
Critical_ROB_Stalls_Percent_8_Bucket_3: 63166
Non-critical_ROB_Stalls_Percent_8_Bucket_3: 3503
Critical_ROB_Stalls_Percent_8_Bucket_4: 23359
Non-critical_ROB_Stalls_Percent_8_Bucket_4: 1169
Critical_ROB_Stalls_Percent_8_Bucket_5: 7944
Non-critical_ROB_Stalls_Percent_8_Bucket_5: 294
Critical_ROB_Stalls_Percent_8_Bucket_6: 7338
Non-critical_ROB_Stalls_Percent_8_Bucket_6: 375
Average ROB occupancy Load Stall Begin: 37.7341
Average ROB occupancy Load Stall End: 46.2892
Min ROB occupancy Load Stall Begin: 1
Max ROB occupancy Load Stall Begin: 352
Min ROB occupancy Load Stall End: 1
Max ROB occupancy Load Stall End: 352
Average ROB occupancy Critical Load Stall Begin: 135.404
Average ROB occupancy Critical Load Stall End: 140.866
Min ROB occupancy Critical Load Stall Begin: 3
Max ROB occupancy Critical Load Stall Begin: 352
Min ROB occupancy Critical Load Stall End: 3
Max ROB occupancy Critical Load Stall End: 352
 ROB Load Stall Begin Bucket Count 0: 2603692
 ROB Load Stall End Bucket Count 0: 2334611
 ROB Critical Load Stall Begin Bucket Count 0: 6533
 ROB Critical Load Stall End Bucket Count 0: 5668
 ROB Load Stall Begin Bucket Count 1: 521041
 ROB Load Stall End Bucket Count 1: 712384
 ROB Critical Load Stall Begin Bucket Count 1: 21590
 ROB Critical Load Stall End Bucket Count 1: 19491
 ROB Load Stall Begin Bucket Count 2: 185118
 ROB Load Stall End Bucket Count 2: 240972
 ROB Critical Load Stall Begin Bucket Count 2: 33531
 ROB Critical Load Stall End Bucket Count 2: 34188
 ROB Load Stall Begin Bucket Count 3: 52915
 ROB Load Stall End Bucket Count 3: 66669
 ROB Critical Load Stall Begin Bucket Count 3: 10502
 ROB Critical Load Stall End Bucket Count 3: 12225
 ROB Load Stall Begin Bucket Count 4: 18984
 ROB Load Stall End Bucket Count 4: 24528
 ROB Critical Load Stall Begin Bucket Count 4: 5325
 ROB Critical Load Stall End Bucket Count 4: 5629
 ROB Load Stall Begin Bucket Count 5: 6553
 ROB Load Stall End Bucket Count 5: 8238
 ROB Critical Load Stall Begin Bucket Count 5: 2878
 ROB Critical Load Stall End Bucket Count 5: 2907
 ROB Load Stall Begin Bucket Count 6: 6812
 ROB Load Stall End Bucket Count 6: 7713
 ROB Critical Load Stall Begin Bucket Count 6: 5144
 ROB Critical Load Stall End Bucket Count 6: 5395
PIST Tag Read Accesses: 2486654
PIST Read Accesses: 1243327
PIST Tag Write Accesses: 2486654
PIST Write Accesses: 1243327
Criticality detector called times: 3309612
Max global_stall_cycles_count: 2232533
Threshold Modified: 1 times, factor: -1
Sturdy critical IP cache stats: 
 Unused entries: 0
CIC Tag Read Accesses: 0
CIC Read Accesses: 0
CIC Tag Write Accesses: 0
CIC Write Accesses: 0
Wobbly critical IP cache stats: 
 Unused entries: 123
CIC Tag Read Accesses: 84225796
CIC Read Accesses: 0
CIC Tag Write Accesses: 5
CIC Write Accesses: 0
ITLB TOTAL     ACCESS:   10420975  HIT:    9664798  MISS:     756177  HIT %:    92.7437  MISS %:     7.2563   MPKI: 15.1235
ITLB LOAD TRANSLATION ACCESS:    8206092  HIT:    8158171  MISS:      47921  HIT %:     99.416  MISS %:   0.583969   MPKI: 0.95842
ITLB TRANSLATION FROM L1D PREFETCHER ACCESS:    2214883  HIT:    1506627  MISS:     708256  HIT %:    68.0229  MISS %:    31.9771   MPKI: 14.1651
ITLBprefetch_cycle_count: 0 prefetches_per_prefetch_cycle: -nan
ITLB PREFETCH  REQUESTED:          0  ISSUED:          0  USEFUL:     572655  USELESS:     135607
ITLB USEFUL LOAD PREFETCHES:     572655 PREFETCH ISSUED TO LOWER LEVEL:          0  ACCURACY: inf
ITLB TIMELY PREFETCHES:     572655 LATE PREFETCHES: 36 DROPPED PREFETCHES: 5584
ITLB PREFETCHES SAME FILL-ORIGIN LEVEL: 0 DIFFERENT FILL-ORIGIN LEVEL: 0
ITLB AVERAGE MISS LATENCY: 2257.01 cycles
ITLB RQ	ACCESS:   15918432	FORWARD:          0	MERGED:    5455276	TO_CACHE:   10463156

DTLB TOTAL     ACCESS:   11396652  HIT:   10838722  MISS:     557930  HIT %:    95.1044  MISS %:    4.89556   MPKI: 11.1586
DTLB LOAD TRANSLATION ACCESS:   11396652  HIT:   10838722  MISS:     557930  HIT %:    95.1044  MISS %:    4.89556   MPKI: 11.1586
DTLBprefetch_cycle_count: 0 prefetches_per_prefetch_cycle: -nan
DTLB PREFETCH  REQUESTED:          0  ISSUED:          0  USEFUL:          0  USELESS:          0
DTLB USEFUL LOAD PREFETCHES:          0 PREFETCH ISSUED TO LOWER LEVEL:          0  ACCURACY: -nan
DTLB TIMELY PREFETCHES:          0 LATE PREFETCHES: 0 DROPPED PREFETCHES: 0
DTLB PREFETCHES SAME FILL-ORIGIN LEVEL: 0 DIFFERENT FILL-ORIGIN LEVEL: 0
DTLB AVERAGE MISS LATENCY: 10.8472 cycles
DTLB RQ	ACCESS:   14919545	FORWARD:          0	MERGED:    3495281	TO_CACHE:   11424264

STLB TOTAL     ACCESS:    1334349  HIT:    1318314  MISS:      16035  HIT %:    98.7983  MISS %:    1.20171   MPKI: 0.3207
STLB LOAD TRANSLATION ACCESS:     605815  HIT:     591681  MISS:      14134  HIT %:    97.6669  MISS %:    2.33306   MPKI: 0.28268
STLB TRANSLATION FROM L1D PREFETCHER ACCESS:     728534  HIT:     726633  MISS:       1901  HIT %:    99.7391  MISS %:   0.260935   MPKI: 0.03802
STLBprefetch_cycle_count: 0 prefetches_per_prefetch_cycle: -nan
STLB PREFETCH  REQUESTED:          0  ISSUED:          0  USEFUL:       1625  USELESS:        272
STLB USEFUL LOAD PREFETCHES:       1625 PREFETCH ISSUED TO LOWER LEVEL:          0  ACCURACY: inf
STLB TIMELY PREFETCHES:       1625 LATE PREFETCHES: 0 DROPPED PREFETCHES: 5584
STLB PREFETCHES SAME FILL-ORIGIN LEVEL: 0 DIFFERENT FILL-ORIGIN LEVEL: 0
STLB AVERAGE MISS LATENCY: 69.9806 cycles
STLB RQ	ACCESS:    1354508	FORWARD:          0	MERGED:      14575	TO_CACHE:    1339933

STLB Hit, L1D data hit: 0
STLB Hit, L2C data hit: 0
STLB Hit, LLC data hit: 0
STLB Hit, LLC data miss: 0
STLB STLB hints to L2: 0
L1D TOTAL     ACCESS:   14416819  HIT:   13147689  MISS:    1269130  HIT %:    91.1969  MISS %:    8.80312   MPKI: 25.3826
L1D LOAD      ACCESS:    7963564  HIT:    7025049  MISS:     938515  HIT %:    88.2149  MISS %:    11.7851   MPKI: 18.7703
L1D RFO       ACCESS:    6421051  HIT:    6115730  MISS:     305321  HIT %:     95.245  MISS %:      4.755   MPKI: 6.10642
L1D PREFETCH  ACCESS:      32204  HIT:       6910  MISS:      25294  HIT %:     21.457  MISS %:     78.543   MPKI: 0.50588
L1Dprefetch_cycle_count: 20760 prefetches_per_prefetch_cycle: 3.35453
L1D PREFETCH  REQUESTED:      69640  ISSUED:      69640  USEFUL:       3304  USELESS:      21972
L1D USEFUL LOAD PREFETCHES:       3304 PREFETCH ISSUED TO LOWER LEVEL:      27102  ACCURACY: 12.191
L1D TIMELY PREFETCHES:       3304 LATE PREFETCHES: 1806 DROPPED PREFETCHES: 0
L1D PREFETCHES SAME FILL-ORIGIN LEVEL: 27102 DIFFERENT FILL-ORIGIN LEVEL: 0
L1D AVERAGE MISS LATENCY: 34878.8 cycles
L1D RQ	ACCESS:   11353741	FORWARD:          0	MERGED:    3197218	TO_CACHE:    8005168
L1D WQ	ACCESS:    6987103	FORWARD:     151361	MERGED:      72726	TO_CACHE:    6914377
L1D PQ	ACCESS:      34823	FORWARD:          0	MERGED:          0	TO_CACHE:      34817

L1D UNIQUE REGIONS ACCESSED: 0
L1D REGIONS CONFLICTS: 0
L1D Cross Page Prefetch Requests: 0
L1D Same Page Prefetch Requests: 39136
L1D ROI Sum of L1D PQ occupancy: 463052
L1D PREFETCHES PUSHED FROM L2C: 0
L1I TOTAL     ACCESS:   15824529  HIT:   11477060  MISS:    4347469  HIT %:     72.527  MISS %:     27.473   MPKI: 86.9494
L1I LOAD      ACCESS:    9700809  HIT:    9623891  MISS:      76918  HIT %:    99.2071  MISS %:   0.792903   MPKI: 1.53836
L1I PREFETCH  ACCESS:    6123720  HIT:    1853169  MISS:    4270551  HIT %:    30.2621  MISS %:    69.7379   MPKI: 85.411
L1Iprefetch_cycle_count: 0 prefetches_per_prefetch_cycle: inf
L1I PREFETCH  REQUESTED:    6343820  ISSUED:    6327368  USEFUL:    3050779  USELESS:    1219806
L1I USEFUL LOAD PREFETCHES:    3050779 PREFETCH ISSUED TO LOWER LEVEL:    4286072  ACCURACY: 71.1789
L1I TIMELY PREFETCHES:    3050779 LATE PREFETCHES: 15529 DROPPED PREFETCHES: 12220
L1I PREFETCHES SAME FILL-ORIGIN LEVEL: 4286072 DIFFERENT FILL-ORIGIN LEVEL: 0
L1I AVERAGE MISS LATENCY: 188880 cycles
L1I RQ	ACCESS:   13646201	FORWARD:          0	MERGED:    3936121	TO_CACHE:    9710080
L1I PQ	ACCESS:    6327368	FORWARD:          0	MERGED:     119016	TO_CACHE:    6208352

BTB TOTAL     ACCESS:    6108829  HIT:    4217933  MISS:    1890896  HIT %:    69.0465  MISS %:    30.9535   MPKI: 37.8179
BTB BRANCH_DIRECT_JUMP	ACCESS:     546483  HIT:     394596  MISS:     151887
BTB BRANCH_INDIRECT	ACCESS:     172433  HIT:     135681  MISS:      36752
BTB BRANCH_CONDITIONAL	ACCESS:    2972187  HIT:    2453635  MISS:     518552
BTB BRANCH_DIRECT_CALL	ACCESS:    1018497  HIT:     648526  MISS:     369971
BTB BRANCH_INDIRECT_CALL	ACCESS:     190373  HIT:     119425  MISS:      70948
BTB BRANCH_RETURN	ACCESS:    1208856  HIT:     466070  MISS:     742786
BTB BRANCH_OTHER ACCESS:          0  HIT:          0  MISS:          0

L2C TOTAL     ACCESS:    6229571  HIT:    5832223  MISS:     397348  HIT %:    93.6216  MISS %:    6.37842   MPKI: 7.94696
L2C LOAD      ACCESS:     998091  HIT:     867088  MISS:     131003  HIT %:    86.8746  MISS %:    13.1254   MPKI: 2.62006
L2C DATA LOAD MPKI: 2.44986
L2C INSTRUCTION LOAD MPKI: 0.1702
L2C RFO       ACCESS:     305320  HIT:     275800  MISS:      29520  HIT %:    90.3315  MISS %:    9.66854   MPKI: 0.5904
L2C PREFETCH  ACCESS:    4313182  HIT:    4101461  MISS:     211721  HIT %:    95.0913  MISS %:     4.9087   MPKI: 4.23442
L2C DATA PREFETCH MPKI: 0.2964
L2C INSTRUCTION PREFETCH MPKI: 3.93802
L2C WRITEBACK ACCESS:     579511  HIT:     566498  MISS:      13013  HIT %:    97.7545  MISS %:    2.24551   MPKI: 0.26026
L2C LOAD TRANSLATION ACCESS:      21545  HIT:      10433  MISS:      11112  HIT %:    48.4242  MISS %:    51.5758   MPKI: 0.22224
L2C TRANSLATION FROM L1D PREFETCHER ACCESS:      11922  HIT:      10943  MISS:        979  HIT %:    91.7883  MISS %:    8.21171   MPKI: 0.01958
L2Cprefetch_cycle_count: 0 prefetches_per_prefetch_cycle: -nan
L2C PREFETCH  REQUESTED:          0  ISSUED:          0  USEFUL:       2725  USELESS:     209687
L2C USEFUL LOAD PREFETCHES:       2725 PREFETCH ISSUED TO LOWER LEVEL:     211721  ACCURACY: 1.28707
L2C TIMELY PREFETCHES:       2725 LATE PREFETCHES: 0 DROPPED PREFETCHES: 0
L2C PREFETCHES SAME FILL-ORIGIN LEVEL: 0 DIFFERENT FILL-ORIGIN LEVEL: 0
L2C AVERAGE MISS LATENCY: 45.2325 cycles
L2C RQ	ACCESS:    1336884	FORWARD:          0	MERGED:          0	TO_CACHE:    1336878
L2C WQ	ACCESS:     579511	FORWARD:          6	MERGED:          0	TO_CACHE:     579511
L2C PQ	ACCESS:    4313174	FORWARD:          0	MERGED:          0	TO_CACHE:    4313174

L2C Instructions Evicting Data 79139
L2C Translations Evicting Data 7447
L2C Data Evicting Data 88067
L2C Instructions Evicting Instructions 122523
L2C Translations Evicting Instructions 3752
L2C Data Evicting Instructions 71476
L2C Instructions Evicting Translations 3749
L2C Translations Evicting Translations 892
L2C Data Evicting Translations 7290
L2C Dense regions hint from L2: 0
PSCL5 TOTAL     ACCESS:      21619  HIT:      21619  MISS:          0  HIT %:        100  MISS %:          0   MPKI: 0
PSCL5 LOAD TRANSLATION ACCESS:      14134  HIT:      14134  MISS:          0  HIT %:        100  MISS %:          0   MPKI: 0
PSCL5 TRANSLATION FROM L1D PREFETCHER ACCESS:       7485  HIT:       7485  MISS:          0  HIT %:        100  MISS %:          0   MPKI: 0
PSCL5prefetch_cycle_count: 0 prefetches_per_prefetch_cycle: -nan
PSCL5 PREFETCH  REQUESTED:          0  ISSUED:          0  USEFUL:          0  USELESS:          0
PSCL5 USEFUL LOAD PREFETCHES:          0 PREFETCH ISSUED TO LOWER LEVEL:          0  ACCURACY: -nan
PSCL5 TIMELY PREFETCHES:          0 LATE PREFETCHES: 0 DROPPED PREFETCHES: 0
PSCL5 PREFETCHES SAME FILL-ORIGIN LEVEL: 0 DIFFERENT FILL-ORIGIN LEVEL: 0

PSCL4 TOTAL     ACCESS:      20211  HIT:      20014  MISS:        197  HIT %:    99.0253  MISS %:   0.974717   MPKI: 0.00394
PSCL4 LOAD TRANSLATION ACCESS:      13139  HIT:      12942  MISS:        197  HIT %:    98.5006  MISS %:    1.49935   MPKI: 0.00394
PSCL4 TRANSLATION FROM L1D PREFETCHER ACCESS:       7072  HIT:       7072  MISS:          0  HIT %:        100  MISS %:          0   MPKI: 0
PSCL4prefetch_cycle_count: 0 prefetches_per_prefetch_cycle: -nan
PSCL4 PREFETCH  REQUESTED:          0  ISSUED:          0  USEFUL:          0  USELESS:          0
PSCL4 USEFUL LOAD PREFETCHES:          0 PREFETCH ISSUED TO LOWER LEVEL:          0  ACCURACY: -nan
PSCL4 TIMELY PREFETCHES:          0 LATE PREFETCHES: 0 DROPPED PREFETCHES: 0
PSCL4 PREFETCHES SAME FILL-ORIGIN LEVEL: 0 DIFFERENT FILL-ORIGIN LEVEL: 0

PSCL3 TOTAL     ACCESS:      21476  HIT:      21276  MISS:        200  HIT %:    99.0687  MISS %:   0.931272   MPKI: 0.004
PSCL3 LOAD TRANSLATION ACCESS:      14134  HIT:      13934  MISS:        200  HIT %:     98.585  MISS %:    1.41503   MPKI: 0.004
PSCL3 TRANSLATION FROM L1D PREFETCHER ACCESS:       7342  HIT:       7342  MISS:          0  HIT %:        100  MISS %:          0   MPKI: 0
PSCL3prefetch_cycle_count: 0 prefetches_per_prefetch_cycle: -nan
PSCL3 PREFETCH  REQUESTED:          0  ISSUED:          0  USEFUL:          0  USELESS:          0
PSCL3 USEFUL LOAD PREFETCHES:          0 PREFETCH ISSUED TO LOWER LEVEL:          0  ACCURACY: -nan
PSCL3 TIMELY PREFETCHES:          0 LATE PREFETCHES: 0 DROPPED PREFETCHES: 0
PSCL3 PREFETCHES SAME FILL-ORIGIN LEVEL: 0 DIFFERENT FILL-ORIGIN LEVEL: 0

PSCL2 TOTAL     ACCESS:      18201  HIT:      10327  MISS:       7874  HIT %:    56.7386  MISS %:    43.2614   MPKI: 0.15748
PSCL2 LOAD TRANSLATION ACCESS:      14917  HIT:       7043  MISS:       7874  HIT %:    47.2146  MISS %:    52.7854   MPKI: 0.15748
PSCL2 TRANSLATION FROM L1D PREFETCHER ACCESS:       3284  HIT:       3284  MISS:          0  HIT %:        100  MISS %:          0   MPKI: 0
PSCL2prefetch_cycle_count: 0 prefetches_per_prefetch_cycle: -nan
PSCL2 PREFETCH  REQUESTED:          0  ISSUED:          0  USEFUL:          0  USELESS:          0
PSCL2 USEFUL LOAD PREFETCHES:          0 PREFETCH ISSUED TO LOWER LEVEL:          0  ACCURACY: -nan
PSCL2 TIMELY PREFETCHES:          0 LATE PREFETCHES: 0 DROPPED PREFETCHES: 0
PSCL2 PREFETCHES SAME FILL-ORIGIN LEVEL: 0 DIFFERENT FILL-ORIGIN LEVEL: 0

LLC TOTAL     ACCESS:     424834  HIT:     380302  MISS:      44532  HIT %:    89.5178  MISS %:    10.4822   MPKI: 0.89064
LLC LOAD      ACCESS:     131003  HIT:     101774  MISS:      29229  HIT %:    77.6883  MISS %:    22.3117   MPKI: 0.58458
LLC RFO       ACCESS:      29520  HIT:      25283  MISS:       4237  HIT %:     85.647  MISS %:     14.353   MPKI: 0.08474
LLC PREFETCH  ACCESS:     211721  HIT:     202180  MISS:       9541  HIT %:    95.4936  MISS %:     4.5064   MPKI: 0.19082
LLC WRITEBACK ACCESS:      40499  HIT:      40160  MISS:        339  HIT %:    99.1629  MISS %:   0.837058   MPKI: 0.00678
LLC LOAD TRANSLATION ACCESS:      11112  HIT:       9946  MISS:       1166  HIT %:    89.5068  MISS %:    10.4932   MPKI: 0.02332
LLC TRANSLATION FROM L1D PREFETCHER ACCESS:        979  HIT:        959  MISS:         20  HIT %:    97.9571  MISS %:     2.0429   MPKI: 0.0004
LLCprefetch_cycle_count: 0 prefetches_per_prefetch_cycle: -nan
LLC PREFETCH  REQUESTED:          0  ISSUED:          0  USEFUL:        334  USELESS:       5380
LLC USEFUL LOAD PREFETCHES:        334 PREFETCH ISSUED TO LOWER LEVEL:       9541  ACCURACY: 3.50068
LLC TIMELY PREFETCHES:        334 LATE PREFETCHES: 0 DROPPED PREFETCHES: 0
LLC PREFETCHES SAME FILL-ORIGIN LEVEL: 0 DIFFERENT FILL-ORIGIN LEVEL: 0
LLC AVERAGE MISS LATENCY: 144.05 cycles
LLC RQ	ACCESS:     172614	FORWARD:          0	MERGED:          0	TO_CACHE:     172614
LLC WQ	ACCESS:      40499	FORWARD:          0	MERGED:          0	TO_CACHE:      40499
LLC PQ	ACCESS:     211721	FORWARD:          0	MERGED:          0	TO_CACHE:     211721

LLC Dense regions hint to LLC: 0

RAW hits: 1103666
Loads Generated: 12457407
Loads sent to L1D: 11353741
Stores Generated: 6987099
Stores sent to L1D: 6987103
Major fault: 0 Minor fault: 6261
Allocated PAGES: 6261
I-Shadow cache 408 bytes
Touched + WorthPF tables 6144 bytes 
MMA filter 174 bytes 
FNL filter 272 bytes 
TOTAL PREFETCHER STORAGE SIZE: 25174 bytes
CPU 0 L1I next line prefetcher final stats

total_pref_operate_instances_l1: 417631
dynamic_config_counter_instances_1: 178548
dynamic_config_counter_instances_2: 4094
dynamic_config_counter_instances_3: 5268
dynamic_config_counter_instances_4: 3502
dynamic_config_counter_instances_5: 226219
stream: 
stream:times selected: 41404
stream:pref_filled: 20635
stream:pref_useful: 1387
stream:pref_late: 839
stream:misses: 351
stream:misses_by_poll: 0

CS: 
CS:times selected: 5363
CS:pref_filled: 2631
CS:pref_useful: 1759
CS:pref_late: 592
CS:misses: 856
CS:misses_by_poll: 1

CPLX: 
CPLX:times selected: 35181
CPLX:pref_filled: 3547
CPLX:pref_useful: 580
CPLX:pref_late: 428
CPLX:misses: 3554
CPLX:misses_by_poll: 2

NL_L1: 
NL:times selected: 3437
NL:pref_filled: 758
NL:pref_useful: 124
NL:pref_late: 88
NL:misses: 495
NL:misses_by_poll: 0

total selections: 85385
total_filled: 25294
total_useful: 3304
total_late: 2086
total_polluted: 3
total_misses_after_warmup: 38873
conflicts: 135382
Degree Incremented Times: 5446
Degree Decremented Times: 2752

L1 IP Table Write Accesses: 274207
L1 IP Table Read Accesses: 138825
L1 RST Write Accesses: 38831
L1 RST Read Accesses: 77662
L1 CSPT Write Accesses: 38831
L1 CSPT Read Accesses: 74726
L1 RR Filter Tag Write Accesses: 34823
L1 RR Filter Tag Read Accesses: 2393110
L1 IP Table Tag Write Accesses: 417631
L1 IP Table Tag Read Accesses: 417631
L1 RST Tag Write Accesses: 0
L1 RST Tag Read Accesses: 299647
L1 RR Filter Write Accesses: 0
L1 RR Filter Read Accesses: 86894
test: 11141

DRAM Statistics
 CHANNEL 0
 RQ ROW_BUFFER_HIT:      13856  ROW_BUFFER_MISS:      30327
 DBUS_CONGESTED:         10
 WQ ROW_BUFFER_HIT:       1079  ROW_BUFFER_MISS:       3440  FULL:          0

 AVG_CONGESTED_CYCLE: 4
 All warmup complete: 2
Channel 0 Bank busy for read cycles: 0
Channel 0 Bank busy for write cycles: 0
Channel 0
Rank 0
0banks busy for read cycles: 77015983
0banks busy for write cycles: 2392
1banks busy for read cycles: 2549723
1banks busy for write cycles: 576468
2banks busy for read cycles: 680651
2banks busy for write cycles: 210522
3banks busy for read cycles: 241383
3banks busy for write cycles: 96149
4banks busy for read cycles: 47456
4banks busy for write cycles: 38107
5banks busy for read cycles: 16523
5banks busy for write cycles: 14190
6banks busy for read cycles: 13674
6banks busy for write cycles: 5157
7banks busy for read cycles: 13454
7banks busy for write cycles: 2708
8banks busy for read cycles: 20057
8banks busy for write cycles: 4791

CPU 0 Branch Prediction Accuracy: 99.6894% MPKI: 0.58048 Average ROB Occupancy at Mispredict: 90.384
Branch types
NOT_BRANCH: 40655504 81.311%
BRANCH_DIRECT_JUMP: 546483 1.09297%
BRANCH_INDIRECT: 172433 0.344866%
BRANCH_CONDITIONAL: 6207553 12.4151%
BRANCH_DIRECT_CALL: 1018497 2.03699%
BRANCH_INDIRECT_CALL: 190373 0.380746%
BRANCH_RETURN: 1208856 2.41771%
BRANCH_OTHER: 0 0%

DRAM PAGES: 1048576
Allocated PAGES: 6261
