Initialize SIGNATURE TABLE
ST_SET: 1
ST_WAY: 256
ST_TAG_BIT: 16
ST_TAG_MASK: ffff

Initialize PATTERN TABLE
PT_SET: 512
PT_WAY: 4
SIG_DELTA_BIT: 7
C_SIG_BIT: 4
C_DELTA_BIT: 4

Initialize PREFETCH FILTER
FILTER_SET: 1024

Initialize PERCEPTRON
PERC_ENTRIES: 4096
PERC_FEATURES: 9
MANA initialize 
tds: 2 tdm: 4
size MANA SINGLE: 25.5 KB
size MANA NULTIPLE: 9.875 KB
size HOBPT: 0.703125 KB
size SRQ: 0.0644531 KB
size SABs: 0.0402832 KB
size prefetch queue: 0.453125 KB
total: 36.636 KB

*** ChampSim Multicore Out-of-Order Simulator ***

Warmup Instructions: 50000000
Simulation Instructions: 50000000
Number of CPUs: 1
LLC sets: 2048
LLC ways: 16
Off-chip DRAM Size: 4096 MB Channels: 1 Width: 64-bit Data Rate: 6400 MT/s
CPU 0 runs ../IPC-traces//server_025.champsimtrace.xz
.xz
BTB has LRU replacement policy
ITLB has LRU replacement policy
DTLB has LRU replacement policy
STLB has LRU replacement policy
L1I has LRU replacement policy
L1D has LRU replacement policy
Initialize SRRIP state for L2C
Initialize DRRIP state for LLC
Heartbeat CPU 0 instructions: 10000000 cycles: 3102721 heartbeat IPC: 3.22298 cumulative IPC: 3.22298 (Simulation time: 0 hr 4 min 50 sec) 
Heartbeat CPU 0 instructions: 20000003 cycles: 6217265 heartbeat IPC: 3.21074 cumulative IPC: 3.21685 (Simulation time: 0 hr 9 min 18 sec) 
Heartbeat CPU 0 instructions: 30000001 cycles: 9327240 heartbeat IPC: 3.21546 cumulative IPC: 3.21639 (Simulation time: 0 hr 13 min 46 sec) 
Heartbeat CPU 0 instructions: 40000001 cycles: 12444472 heartbeat IPC: 3.20797 cumulative IPC: 3.21428 (Simulation time: 0 hr 18 min 6 sec) 
Heartbeat CPU 0 instructions: 50000001 cycles: 15559424 heartbeat IPC: 3.21032 cumulative IPC: 3.21349 (Simulation time: 0 hr 21 min 25 sec) 

Warmup complete CPU 0 instructions: 50000001 cycles: 15559424 (Simulation time: 0 hr 21 min 25 sec) 

Epoch all ip prefetch: 0, epoch id: 2
Epoch all ip prefetch: 1, epoch id: 3
Epoch all ip prefetch: 0, epoch id: 4
Epoch all ip prefetch: 0, epoch id: 5
Epoch all ip prefetch: 0, epoch id: 6
Epoch all ip prefetch: 0, epoch id: 7
Epoch all ip prefetch: 0, epoch id: 8
Epoch all ip prefetch: 0, epoch id: 9
Epoch all ip prefetch: 0, epoch id: 10
Epoch all ip prefetch: 0, epoch id: 11
Heartbeat CPU 0 instructions: 60000000 cycles: 33533711 heartbeat IPC: 0.55635 cumulative IPC: 0.55635 (Simulation time: 0 hr 25 min 27 sec) 
Epoch all ip prefetch: 0, epoch id: 12
Epoch all ip prefetch: 0, epoch id: 13
Epoch all ip prefetch: 0, epoch id: 14
Epoch all ip prefetch: 0, epoch id: 15
Epoch all ip prefetch: 0, epoch id: 16
Epoch all ip prefetch: 0, epoch id: 17
Epoch all ip prefetch: 0, epoch id: 18
Epoch all ip prefetch: 0, epoch id: 19
Epoch all ip prefetch: 0, epoch id: 20
Epoch all ip prefetch: 0, epoch id: 21
Heartbeat CPU 0 instructions: 70000000 cycles: 51552498 heartbeat IPC: 0.554976 cumulative IPC: 0.555662 (Simulation time: 0 hr 29 min 26 sec) 
Epoch all ip prefetch: 0, epoch id: 22
Epoch all ip prefetch: 0, epoch id: 23
Epoch all ip prefetch: 0, epoch id: 24
Epoch all ip prefetch: 0, epoch id: 25
Epoch all ip prefetch: 0, epoch id: 26
Epoch all ip prefetch: 0, epoch id: 27
Epoch all ip prefetch: 0, epoch id: 28
Epoch all ip prefetch: 0, epoch id: 29
Epoch all ip prefetch: 0, epoch id: 30
Epoch all ip prefetch: 0, epoch id: 31
Heartbeat CPU 0 instructions: 80000002 cycles: 69355592 heartbeat IPC: 0.5617 cumulative IPC: 0.557661 (Simulation time: 0 hr 33 min 25 sec) 
Epoch all ip prefetch: 0, epoch id: 32
Epoch all ip prefetch: 0, epoch id: 33
Epoch all ip prefetch: 0, epoch id: 34
Epoch all ip prefetch: 0, epoch id: 35
Epoch all ip prefetch: 0, epoch id: 36
Epoch all ip prefetch: 0, epoch id: 37
Epoch all ip prefetch: 0, epoch id: 38
Epoch all ip prefetch: 0, epoch id: 39
Epoch all ip prefetch: 0, epoch id: 40
Epoch all ip prefetch: 0, epoch id: 41
Heartbeat CPU 0 instructions: 90000002 cycles: 85556426 heartbeat IPC: 0.617252 cumulative IPC: 0.571453 (Simulation time: 0 hr 37 min 4 sec) 
Epoch all ip prefetch: 0, epoch id: 42
Epoch all ip prefetch: 0, epoch id: 43
Epoch all ip prefetch: 0, epoch id: 44
Epoch all ip prefetch: 0, epoch id: 45
Epoch all ip prefetch: 0, epoch id: 46
Epoch all ip prefetch: 0, epoch id: 47
Epoch all ip prefetch: 0, epoch id: 48
Epoch all ip prefetch: 0, epoch id: 49
Epoch all ip prefetch: 0, epoch id: 50
Epoch all ip prefetch: 0, epoch id: 51
Heartbeat CPU 0 instructions: 100000001 cycles: 100319242 heartbeat IPC: 0.677377 cumulative IPC: 0.589902 (Simulation time: 0 hr 40 min 23 sec) 
Finished CPU 0 instructions: 50000000 cycles: 84759818 cumulative IPC: 0.589902 (Simulation time: 0 hr 40 min 23 sec) 

ChampSim completed all CPUs

Region of Interest Statistics

CPU 0 cumulative IPC: 0.589902 instructions: 50000000 cycles: 84759818

CPU 0 Average Load ROB stall cycles: 3.3788
CPU 0 Fraction of times ROB stalled by Loads: 27.0427
CPU 0 Percentage of Load stall cycles in Total stall cycles: 50.3817
CPU 0 NUM of IPS identified critical: 0

Average ROB occupancy Load Stall Begin: 36.8045
Average ROB occupancy Load Stall End: 44.0254
Min ROB occupancy Load Stall Begin: 1
Max ROB occupancy Load Stall Begin: 351
Min ROB occupancy Load Stall End: 1
Max ROB occupancy Load Stall End: 352
Average ROB occupancy Critical Load Stall Begin: -nan
Average ROB occupancy Critical Load Stall End: -nan
Min ROB occupancy Critical Load Stall Begin: 400
Max ROB occupancy Critical Load Stall Begin: 0
Min ROB occupancy Critical Load Stall End: 400
Max ROB occupancy Critical Load Stall End: 0
 ROB Load Stall Begin Bucket Count 0: 1872099
 ROB Load Stall End Bucket Count 0: 1739327
 ROB Critical Load Stall Begin Bucket Count 0: 0
 ROB Critical Load Stall End Bucket Count 0: 0
 ROB Load Stall Begin Bucket Count 1: 335413
 ROB Load Stall End Bucket Count 1: 413752
 ROB Critical Load Stall Begin Bucket Count 1: 0
 ROB Critical Load Stall End Bucket Count 1: 0
 ROB Load Stall Begin Bucket Count 2: 128047
 ROB Load Stall End Bucket Count 2: 164734
 ROB Critical Load Stall Begin Bucket Count 2: 0
 ROB Critical Load Stall End Bucket Count 2: 0
 ROB Load Stall Begin Bucket Count 3: 39175
 ROB Load Stall End Bucket Count 3: 53687
 ROB Critical Load Stall Begin Bucket Count 3: 0
 ROB Critical Load Stall End Bucket Count 3: 0
 ROB Load Stall Begin Bucket Count 4: 11003
 ROB Load Stall End Bucket Count 4: 13032
 ROB Critical Load Stall Begin Bucket Count 4: 0
 ROB Critical Load Stall End Bucket Count 4: 0
 ROB Load Stall Begin Bucket Count 5: 5999
 ROB Load Stall End Bucket Count 5: 6264
 ROB Critical Load Stall Begin Bucket Count 5: 0
 ROB Critical Load Stall End Bucket Count 5: 0
 ROB Load Stall Begin Bucket Count 6: 13052
 ROB Load Stall End Bucket Count 6: 13992
 ROB Critical Load Stall Begin Bucket Count 6: 0
 ROB Critical Load Stall End Bucket Count 6: 0
Threshold Modified: 1 times, factor: -1
Sturdy critical IP cache stats: 
 Unused entries: 99
Wobbly critical IP cache stats: 
 Unused entries: 245
ITLB TOTAL     ACCESS:   12530618  HIT:   11771704  MISS:     758914  HIT %:    93.9435  MISS %:    6.05648   MPKI: 15.1783
ITLB LOAD TRANSLATION ACCESS:    8207058  HIT:    8031869  MISS:     175189  HIT %:    97.8654  MISS %:    2.13461   MPKI: 3.50378
ITLB TRANSLATION FROM L1D PREFETCHER ACCESS:    4323560  HIT:    3739835  MISS:     583725  HIT %:     86.499  MISS %:     13.501   MPKI: 11.6745
ITLB AVERAGE MISS LATENCY: 994155 cycles
ITLB RQ	ACCESS:   21362801	FORWARD:          0	MERGED:    8653340	TO_CACHE:   12709461

DTLB TOTAL     ACCESS:   11561494  HIT:   11108748  MISS:     452746  HIT %:     96.084  MISS %:    3.91598   MPKI: 9.05492
DTLB LOAD TRANSLATION ACCESS:   11561494  HIT:   11108748  MISS:     452746  HIT %:     96.084  MISS %:    3.91598   MPKI: 9.05492
DTLB AVERAGE MISS LATENCY: 9.45749 cycles
DTLB RQ	ACCESS:   15059329	FORWARD:          0	MERGED:    3476612	TO_CACHE:   11582717

STLB TOTAL     ACCESS:    1211660  HIT:    1209550  MISS:       2110  HIT %:    99.8259  MISS %:   0.174141   MPKI: 0.0422
STLB LOAD TRANSLATION ACCESS:     614421  HIT:     612430  MISS:       1991  HIT %:     99.676  MISS %:   0.324045   MPKI: 0.03982
STLB TRANSLATION FROM L1D PREFETCHER ACCESS:     597239  HIT:     597120  MISS:        119  HIT %:    99.9801  MISS %:   0.019925   MPKI: 0.00238
STLB AVERAGE MISS LATENCY: 112.361 cycles
STLB RQ	ACCESS:    1287644	FORWARD:          0	MERGED:          0	TO_CACHE:    1287644

STLB Hit, L1D data hit: 0
STLB Hit, L2C data hit: 0
STLB Hit, LLC data hit: 0
STLB Hit, LLC data miss: 0
STLB STLB hints to L2: 0
L1D TOTAL     ACCESS:   14600381  HIT:   13699576  MISS:     900805  HIT %:    93.8303  MISS %:    6.16974   MPKI: 18.0161
L1D LOAD      ACCESS:    8139186  HIT:    7490090  MISS:     649096  HIT %:    92.0251  MISS %:    7.97495   MPKI: 12.9819
L1D RFO       ACCESS:    6461195  HIT:    6209486  MISS:     251709  HIT %:    96.1043  MISS %:     3.8957   MPKI: 5.03418
L1D AVERAGE MISS LATENCY: 27.9223 cycles
L1D RQ	ACCESS:   11636672	FORWARD:          0	MERGED:    3315476	TO_CACHE:    8172082
L1D WQ	ACCESS:    6957599	FORWARD:     149114	MERGED:      70352	TO_CACHE:    6887247

L1D UNIQUE REGIONS ACCESSED: 0
L1D REGIONS CONFLICTS: 0
L1D Cross Page Prefetch Requests: 0
L1D Same Page Prefetch Requests: 0
L1D ROI Sum of L1D PQ occupancy: 0
L1D PREFETCHES PUSHED FROM L2C: 0
L1I TOTAL     ACCESS:   20555609  HIT:   17209496  MISS:    3346113  HIT %:    83.7217  MISS %:    16.2783   MPKI: 66.9223
L1I LOAD      ACCESS:    9578721  HIT:    8801936  MISS:     776785  HIT %:    91.8905  MISS %:    8.10949   MPKI: 15.5357
L1I PREFETCH  ACCESS:   10976888  HIT:    8407560  MISS:    2569328  HIT %:    76.5933  MISS %:    23.4067   MPKI: 51.3866
L1I PREFETCH  REQUESTED:   13044791  ISSUED:   12512529  USEFUL:    1742980  USELESS:     826365
L1I USEFUL LOAD PREFETCHES:    1742980 PREFETCH ISSUED TO LOWER LEVEL:    2726678  ACCURACY: 63.9232
L1I TIMELY PREFETCHES:    1742980 LATE PREFETCHES: 154719 DROPPED PREFETCHES: 76424
L1I AVERAGE MISS LATENCY: 2.56917e+06 cycles
L1I RQ	ACCESS:   13769814	FORWARD:          0	MERGED:    4095335	TO_CACHE:    9674479
L1I PQ	ACCESS:   12512529	FORWARD:          0	MERGED:     824207	TO_CACHE:   11688322

BTB TOTAL     ACCESS:    6187569  HIT:    4393601  MISS:    1793968  HIT %:    71.0069  MISS %:    28.9931   MPKI: 35.8794
BTB BRANCH_DIRECT_JUMP	ACCESS:     531699  HIT:     378294  MISS:     153405
BTB BRANCH_INDIRECT	ACCESS:     199023  HIT:     166589  MISS:      32434
BTB BRANCH_CONDITIONAL	ACCESS:    3068022  HIT:    2579397  MISS:     488625
BTB BRANCH_DIRECT_CALL	ACCESS:    1010913  HIT:     656139  MISS:     354774
BTB BRANCH_INDIRECT_CALL	ACCESS:     183501  HIT:     115238  MISS:      68263
BTB BRANCH_RETURN	ACCESS:    1194411  HIT:     497944  MISS:     696467
BTB BRANCH_OTHER ACCESS:          0  HIT:          0  MISS:          0

L2C TOTAL     ACCESS:    8403435  HIT:    6447146  MISS:    1956289  HIT %:    76.7204  MISS %:    23.2796   MPKI: 39.1258
L2C LOAD      ACCESS:    1271137  HIT:     974338  MISS:     296799  HIT %:    76.6509  MISS %:    23.3491   MPKI: 5.93598
L2C DATA LOAD MPKI: 3.46436
L2C INSTRUCTION LOAD MPKI: 2.47162
L2C RFO       ACCESS:     251709  HIT:     144049  MISS:     107660  HIT %:    57.2284  MISS %:    42.7716   MPKI: 2.1532
L2C PREFETCH  ACCESS:    6259799  HIT:    4781652  MISS:    1478147  HIT %:    76.3867  MISS %:    23.6133   MPKI: 29.5629
L2C DATA PREFETCH MPKI: 20.5024
L2C INSTRUCTION PREFETCH MPKI: 9.06056
L2C WRITEBACK ACCESS:     449922  HIT:     378128  MISS:      71794  HIT %:     84.043  MISS %:     15.957   MPKI: 1.43588
L2C LOAD TRANSLATION ACCESS:       2116  HIT:        345  MISS:       1771  HIT %:    16.3043  MISS %:    83.6957   MPKI: 0.03542
L2C TRANSLATION FROM L1D PREFETCHER ACCESS:     168752  HIT:     168634  MISS:        118  HIT %:    99.9301  MISS %:  0.0699251   MPKI: 0.00236
L2C PREFETCH  REQUESTED:    4993618  ISSUED:    4993287  USEFUL:     117684  USELESS:    1361422
L2C USEFUL LOAD PREFETCHES:     117684 PREFETCH ISSUED TO LOWER LEVEL:    1582899  ACCURACY: 7.43471
L2C TIMELY PREFETCHES:     117684 LATE PREFETCHES: 15218 DROPPED PREFETCHES: 0
L2C AVERAGE MISS LATENCY: 33.2592 cycles
L2C RQ	ACCESS:    1693739	FORWARD:          0	MERGED:          0	TO_CACHE:    1693714
L2C WQ	ACCESS:     449922	FORWARD:         25	MERGED:          0	TO_CACHE:     449922
L2C PQ	ACCESS:    7717334	FORWARD:          0	MERGED:    1306138	TO_CACHE:    6411196

L2C Instructions Evicting Data403850
L2C Translations Evicting Data1359
L2C Data Evicting Data924688
L2C Instructions Evicting Instructions172273
L2C Translations Evicting Instructions529
L2C Data Evicting Instructions379949
L2C Instructions Evicting Translations486
L2C Translations Evicting Translations1
L2C Data Evicting Translations1360
L2C Dense regions hint from L2: 0
PSCL5 TOTAL     ACCESS:      78094  HIT:      78094  MISS:          0  HIT %:        100  MISS %:          0   MPKI: 0
PSCL5 LOAD TRANSLATION ACCESS:       1991  HIT:       1991  MISS:          0  HIT %:        100  MISS %:          0   MPKI: 0
PSCL5 TRANSLATION FROM L1D PREFETCHER ACCESS:      76103  HIT:      76103  MISS:          0  HIT %:        100  MISS %:          0   MPKI: 0

PSCL4 TOTAL     ACCESS:      75091  HIT:      75083  MISS:          8  HIT %:    99.9893  MISS %:  0.0106537   MPKI: 0.00016
PSCL4 LOAD TRANSLATION ACCESS:       1827  HIT:       1819  MISS:          8  HIT %:    99.5621  MISS %:   0.437876   MPKI: 0.00016
PSCL4 TRANSLATION FROM L1D PREFETCHER ACCESS:      73264  HIT:      73264  MISS:          0  HIT %:        100  MISS %:          0   MPKI: 0

PSCL3 TOTAL     ACCESS:      58099  HIT:      58082  MISS:         17  HIT %:    99.9707  MISS %:  0.0292604   MPKI: 0.00034
PSCL3 LOAD TRANSLATION ACCESS:       1888  HIT:       1871  MISS:         17  HIT %:    99.0996  MISS %:   0.900424   MPKI: 0.00034
PSCL3 TRANSLATION FROM L1D PREFETCHER ACCESS:      56211  HIT:      56211  MISS:          0  HIT %:        100  MISS %:          0   MPKI: 0

PSCL2 TOTAL     ACCESS:       8016  HIT:       7899  MISS:        117  HIT %:    98.5404  MISS %:    1.45958   MPKI: 0.00234
PSCL2 LOAD TRANSLATION ACCESS:       2003  HIT:       1886  MISS:        117  HIT %:    94.1588  MISS %:    5.84124   MPKI: 0.00234
PSCL2 TRANSLATION FROM L1D PREFETCHER ACCESS:       6013  HIT:       6013  MISS:          0  HIT %:        100  MISS %:          0   MPKI: 0

LLC TOTAL     ACCESS:    2147359  HIT:    2089981  MISS:      57378  HIT %:     97.328  MISS %:    2.67203   MPKI: 1.14756
LLC LOAD      ACCESS:     281926  HIT:     276200  MISS:       5726  HIT %:     97.969  MISS %:    2.03103   MPKI: 0.11452
LLC RFO       ACCESS:     107298  HIT:      95423  MISS:      11875  HIT %:    88.9327  MISS %:    11.0673   MPKI: 0.2375
LLC PREFETCH  ACCESS:    1582701  HIT:    1543984  MISS:      38717  HIT %:    97.5537  MISS %:    2.44626   MPKI: 0.77434
LLC WRITEBACK ACCESS:     173545  HIT:     173029  MISS:        516  HIT %:    99.7027  MISS %:   0.297329   MPKI: 0.01032
LLC LOAD TRANSLATION ACCESS:       1771  HIT:       1247  MISS:        524  HIT %:    70.4122  MISS %:    29.5878   MPKI: 0.01048
LLC TRANSLATION FROM L1D PREFETCHER ACCESS:        118  HIT:         98  MISS:         20  HIT %:    83.0508  MISS %:    16.9492   MPKI: 0.0004
LLC AVERAGE MISS LATENCY: 167.77 cycles
LLC RQ	ACCESS:     391130	FORWARD:          0	MERGED:          0	TO_CACHE:     391113
LLC WQ	ACCESS:     173545	FORWARD:         30	MERGED:          0	TO_CACHE:     173545
LLC PQ	ACCESS:    1582899	FORWARD:          0	MERGED:        133	TO_CACHE:    1582753

LLC Dense regions hint to LLC: 0

RAW hits: 1103980
Loads Generated: 12740652
Loads sent to L1D: 11636672
Stores Generated: 6957596
Stores sent to L1D: 6957599
Major fault: 0 Minor fault: 2563
Allocated PAGES: 2563



Printing Logs
statHeadFound: 2319865
statHeadMissing: 2687426
statStreamBufferHit: 11014278
statPrefetchEntryFound: 9368136
statCompactorMatch: 12354524
statStreamTrackerLookup: 16021569
statRecord: 3667045
statGetPointer: 5007291
statEnqueuePrefetch: 23345580
statPrefetchQueueIsFull: 9
StreamBufferHitRate: 0.687466
Regions' size: 2931
next_region_correct: 2409393
next_region_wrong: 1254713
next_region_correct_prediction: 0.657566
statStreamBufferLookups: 160215690
statL1iLookups: 186764640
statCompactorLookups: 256345104
------------------
Depth Distribution
------------------
depth 0: 306319
depth 1: 506109
depth 2: 6086154
depth 3: 376656
depth 4: 1249
depth 5: 977
depth 6: 723
depth 7: 725
depth 8: 866
depth 9: 1110
depth 10: 275
depth 11: 1008
depth 12: 95
depth 13: 0
depth 14: 0
depth 15: 0
depth 16: 0
depth 17: 0
depth 18: 0
depth 19: 0
depth 20: 0
depth 21: 0
depth 22: 0
depth 23: 0
depth 24: 0
depth 25: 0
depth 26: 0
depth 27: 0
depth 28: 0
depth 29: 0
Total: 7282266
------------------
ST read accesses: 1575794732
ST write accesses: 210362219
PT read accesses: 54619468
PT write accesses: 3583724
FILTER read accesses: 15010222
FILTER write accesses: 10923195
GHR read accesses: 6594083
GHR write accesses: 305934
PERC read accesses: 369260505
PERC write accesses: 38953578
GHR counter read accesses: 6686306
GHR counter write accesses: 10805656
GHR ip read accesses: 25845252
GHR ip write accesses: 13372612

DRAM Statistics
 CHANNEL 0
 RQ ROW_BUFFER_HIT:      12084  ROW_BUFFER_MISS:      44760
 DBUS_CONGESTED:         77
 WQ ROW_BUFFER_HIT:       1222  ROW_BUFFER_MISS:      13800  FULL:          0

 AVG_CONGESTED_CYCLE: 3

CPU 0 Branch Prediction Accuracy: 99.8142% MPKI: 0.34676 Average ROB Occupancy at Mispredict: 68.0264
Branch types
NOT_BRANCH: 40668904 81.3378%
BRANCH_DIRECT_JUMP: 531699 1.0634%
BRANCH_INDIRECT: 199023 0.398046%
BRANCH_CONDITIONAL: 6211477 12.423%
BRANCH_DIRECT_CALL: 1010913 2.02183%
BRANCH_INDIRECT_CALL: 183501 0.367002%
BRANCH_RETURN: 1194411 2.38882%
BRANCH_OTHER: 0 0%

DRAM PAGES: 1048576
Allocated PAGES: 2563
