
*** ChampSim Multicore Out-of-Order Simulator ***

Warmup Instructions: 50000000
Simulation Instructions: 50000000
Number of CPUs: 1
LLC sets: 2048
LLC ways: 16
Off-chip DRAM Size: 4096 MB Channels: 1 Width: 64-bit Data Rate: 6400 MT/s
CPU 0 runs ../IPC-traces//server_035.champsimtrace.xz
.xz
NUM_OF_IPS_IN_CRITICAL_IP_TRAINING: 64
NUM_OF_CRITICAL_IP_TRAINING_TABLE_WAYS: 2
NUM_OF_CRITICAL_IP_TRAINING_TABLE_SETS: 32
WOBBLY_CRITICAL_IP_CACHE_SETS: 32
WOBBLY_CRITICAL_IP_CACHE_WAYS: 4
BTB has LRU replacement policy
ITLB has LRU replacement policy
DTLB has LRU replacement policy
STLB has LRU replacement policy
CPU 0 L1I next line prefetcher
L1I has LRU replacement policy
IP Table Entries: 256
L1D has LRU replacement policy
Initialize SRRIP state for L2C
Initialize DRRIP state for LLC
Heartbeat CPU 0 instructions: 10000001 cycles: 2766972 heartbeat IPC: 3.61406 cumulative IPC: 3.61406 (Simulation time: 0 hr 2 min 28 sec) 
Heartbeat CPU 0 instructions: 20000002 cycles: 5530309 heartbeat IPC: 3.61881 cumulative IPC: 3.61643 (Simulation time: 0 hr 4 min 55 sec) 
Heartbeat CPU 0 instructions: 30000003 cycles: 8294754 heartbeat IPC: 3.61736 cumulative IPC: 3.61674 (Simulation time: 0 hr 7 min 23 sec) 
Heartbeat CPU 0 instructions: 40000000 cycles: 11059489 heartbeat IPC: 3.61698 cumulative IPC: 3.6168 (Simulation time: 0 hr 9 min 50 sec) 
Heartbeat CPU 0 instructions: 50000003 cycles: 13821313 heartbeat IPC: 3.6208 cumulative IPC: 3.6176 (Simulation time: 0 hr 12 min 20 sec) 

Warmup complete CPU 0 instructions: 50000003 cycles: 13821313 (Simulation time: 0 hr 12 min 20 sec) 

% increase in all ip prefetch 534.067
% increase in all ip prefetch 0.264036
Heartbeat CPU 0 instructions: 60000001 cycles: 29243239 heartbeat IPC: 0.648427 cumulative IPC: 0.648427 (Simulation time: 0 hr 14 min 50 sec) 
Heartbeat CPU 0 instructions: 70000003 cycles: 44422040 heartbeat IPC: 0.658814 cumulative IPC: 0.653579 (Simulation time: 0 hr 17 min 20 sec) 
Heartbeat CPU 0 instructions: 80000003 cycles: 59670860 heartbeat IPC: 0.655788 cumulative IPC: 0.654314 (Simulation time: 0 hr 19 min 48 sec) 
Heartbeat CPU 0 instructions: 90000001 cycles: 74469001 heartbeat IPC: 0.67576 cumulative IPC: 0.659547 (Simulation time: 0 hr 22 min 16 sec) 
Heartbeat CPU 0 instructions: 100000002 cycles: 89721896 heartbeat IPC: 0.655613 cumulative IPC: 0.658756 (Simulation time: 0 hr 25 min 41 sec) 
Finished CPU 0 instructions: 50000003 cycles: 75900584 cumulative IPC: 0.658756 (Simulation time: 0 hr 25 min 41 sec) 

ChampSim completed all CPUs

Region of Interest Statistics

CPU 0 cumulative IPC: 0.658756 instructions: 50000003 cycles: 75900584

CPU 0 Average Load ROB stall cycles: 1.92659e+07
CPU 0 Fraction of times ROB stalled by Loads: 37.0188
CPU 0 Percentage of Load stall cycles in Total stall cycles: 2.22988e+08
Issued all: 28339926
Issued LT all: 22581302
rob_not_full_when_issued_lt_all: 20169498
Issued LT one: 17451293
rob_not_full_when_issued_lt_one: 15126888
critical_ip_candidate_identification_operations: 5465828
critical_ip_candidate_identification_operation_per_cycle: 0.072013
 Total stall cycles: 63783973
 Total load stall cycles: 142230503977404
Unique Load IPs: 8448
CPU 0 NUM of IPS identified critical: 15
CPU 0 Num of Load IPs stalling ROB: 6862
Threshold modification factor: -1
Max PIST entries: 64
Min PIST entries: 0
Avg PIST entries: 32
Trouble in retire width: 0.86465
MaC = Marked as critical.
lt_50_percent_before_Mac: 14
gt_90_percent_before_Mac: 0
gt_75_percent_before_Mac: 0
gt_50_percent_before_Mac: 1
stall_proportion_bin_same_before_after: 0
stall_proportion_bin_lower_before_after: 0
stall_proportion_bin_upper_before_after: 0
average_stall_proportion_before: 0.0246222
average_stall_proportion_after: 0.0259339
Critical IP stalls, total frequency: 21612
Non-critical IP stalls, total frequency: 2711302
Total Freq all stalling IPs: 2732914
Critical_IP_Detector_Accuracy_70: 0.4
Critical_IP_Detector_Accuracy_80: 0.6
Critical_IP_Detector_Accuracy_90: 0.933333
Critical_IP_Detector_Coverage_70: 0.00815217
Critical_IP_Detector_Coverage_80: 0.00954401
Critical_IP_Detector_Coverage_90: 0.0115607
stat_90_percent_critical_ip_stalls_freq: 2459720
stat_90_percent_non_critical_ip_stalls_freq: 273194
AVERAGE_ROB_Occupancy_90_Percent_Critical_IP_Stalls: 63.1981
AVERAGE_ROB_Occupancy_90_Percent_Non_Critical_IP_Stalls: 63.2422
Critical_IP_ROB_Stalls_Bucket_0: 236
Non-critical_IP_ROB_Stalls_Bucket_0: 1440684
Critical_IP_ROB_Stalls_Bucket_1: 1352
Non-critical_IP_ROB_Stalls_Bucket_1: 765187
Critical_IP_ROB_Stalls_Bucket_2: 136
Non-critical_IP_ROB_Stalls_Bucket_2: 334488
Critical_IP_ROB_Stalls_Bucket_3: 60
Non-critical_IP_ROB_Stalls_Bucket_3: 121760
Critical_IP_ROB_Stalls_Bucket_4: 166
Non-critical_IP_ROB_Stalls_Bucket_4: 35849
Critical_IP_ROB_Stalls_Bucket_5: 99
Non-critical_IP_ROB_Stalls_Bucket_5: 8459
Critical_IP_ROB_Stalls_Bucket_6: 19563
Non-critical_IP_ROB_Stalls_Bucket_6: 4875
0 => IPs accounting for >50 percent of stalls, 1 => 55, 2 => 60, 3 => 65 and so on till 90.
percent50: 50.0062 num IPs:  340
percent55: 55.0278 num IPs: 439
percent60: 60.0449 num IPs: 538
percent65: 65.0056 num IPs: 636
percent70: 70.0351 num IPs: 736
percent75: 75.0182 num IPs: 837
percent80: 80.0157 num IPs: 943
percent85: 85.0054 num IPs: 1061
percent90: 90.0035 num IPs: 1211
Critical_ROB_Stalls_Percent_0_Bucket_0: 767288
Non-critical_ROB_Stalls_Percent_0_Bucket_0: 673632
Critical_ROB_Stalls_Percent_0_Bucket_1: 370601
Non-critical_ROB_Stalls_Percent_0_Bucket_1: 395938
Critical_ROB_Stalls_Percent_0_Bucket_2: 160487
Non-critical_ROB_Stalls_Percent_0_Bucket_2: 174137
Critical_ROB_Stalls_Percent_0_Bucket_3: 39829
Non-critical_ROB_Stalls_Percent_0_Bucket_3: 81991
Critical_ROB_Stalls_Percent_0_Bucket_4: 13836
Non-critical_ROB_Stalls_Percent_0_Bucket_4: 22179
Critical_ROB_Stalls_Percent_0_Bucket_5: 2762
Non-critical_ROB_Stalls_Percent_0_Bucket_5: 5796
Critical_ROB_Stalls_Percent_0_Bucket_6: 11824
Non-critical_ROB_Stalls_Percent_0_Bucket_6: 12614
Critical_ROB_Stalls_Percent_1_Bucket_0: 829804
Non-critical_ROB_Stalls_Percent_1_Bucket_0: 611116
Critical_ROB_Stalls_Percent_1_Bucket_1: 417156
Non-critical_ROB_Stalls_Percent_1_Bucket_1: 349383
Critical_ROB_Stalls_Percent_1_Bucket_2: 177652
Non-critical_ROB_Stalls_Percent_1_Bucket_2: 156972
Critical_ROB_Stalls_Percent_1_Bucket_3: 48809
Non-critical_ROB_Stalls_Percent_1_Bucket_3: 73011
Critical_ROB_Stalls_Percent_1_Bucket_4: 15848
Non-critical_ROB_Stalls_Percent_1_Bucket_4: 20167
Critical_ROB_Stalls_Percent_1_Bucket_5: 2767
Non-critical_ROB_Stalls_Percent_1_Bucket_5: 5791
Critical_ROB_Stalls_Percent_1_Bucket_6: 11824
Non-critical_ROB_Stalls_Percent_1_Bucket_6: 12614
Critical_ROB_Stalls_Percent_2_Bucket_0: 860371
Non-critical_ROB_Stalls_Percent_2_Bucket_0: 580549
Critical_ROB_Stalls_Percent_2_Bucket_1: 470382
Non-critical_ROB_Stalls_Percent_2_Bucket_1: 296157
Critical_ROB_Stalls_Percent_2_Bucket_2: 211941
Non-critical_ROB_Stalls_Percent_2_Bucket_2: 122683
Critical_ROB_Stalls_Percent_2_Bucket_3: 64156
Non-critical_ROB_Stalls_Percent_2_Bucket_3: 57664
Critical_ROB_Stalls_Percent_2_Bucket_4: 19499
Non-critical_ROB_Stalls_Percent_2_Bucket_4: 16516
Critical_ROB_Stalls_Percent_2_Bucket_5: 2800
Non-critical_ROB_Stalls_Percent_2_Bucket_5: 5758
Critical_ROB_Stalls_Percent_2_Bucket_6: 11826
Non-critical_ROB_Stalls_Percent_2_Bucket_6: 12612
Critical_ROB_Stalls_Percent_3_Bucket_0: 912763
Non-critical_ROB_Stalls_Percent_3_Bucket_0: 528157
Critical_ROB_Stalls_Percent_3_Bucket_1: 514863
Non-critical_ROB_Stalls_Percent_3_Bucket_1: 251676
Critical_ROB_Stalls_Percent_3_Bucket_2: 231839
Non-critical_ROB_Stalls_Percent_3_Bucket_2: 102785
Critical_ROB_Stalls_Percent_3_Bucket_3: 74940
Non-critical_ROB_Stalls_Percent_3_Bucket_3: 46880
Critical_ROB_Stalls_Percent_3_Bucket_4: 23695
Non-critical_ROB_Stalls_Percent_3_Bucket_4: 12320
Critical_ROB_Stalls_Percent_3_Bucket_5: 6158
Non-critical_ROB_Stalls_Percent_3_Bucket_5: 2400
Critical_ROB_Stalls_Percent_3_Bucket_6: 12290
Non-critical_ROB_Stalls_Percent_3_Bucket_6: 12148
Critical_ROB_Stalls_Percent_4_Bucket_0: 976377
Non-critical_ROB_Stalls_Percent_4_Bucket_0: 464543
Critical_ROB_Stalls_Percent_4_Bucket_1: 557085
Non-critical_ROB_Stalls_Percent_4_Bucket_1: 209454
Critical_ROB_Stalls_Percent_4_Bucket_2: 249187
Non-critical_ROB_Stalls_Percent_4_Bucket_2: 85437
Critical_ROB_Stalls_Percent_4_Bucket_3: 85288
Non-critical_ROB_Stalls_Percent_4_Bucket_3: 36532
Critical_ROB_Stalls_Percent_4_Bucket_4: 26315
Non-critical_ROB_Stalls_Percent_4_Bucket_4: 9700
Critical_ROB_Stalls_Percent_4_Bucket_5: 7458
Non-critical_ROB_Stalls_Percent_4_Bucket_5: 1100
Critical_ROB_Stalls_Percent_4_Bucket_6: 12292
Non-critical_ROB_Stalls_Percent_4_Bucket_6: 12146
Critical_ROB_Stalls_Percent_5_Bucket_0: 1048084
Non-critical_ROB_Stalls_Percent_5_Bucket_0: 392836
Critical_ROB_Stalls_Percent_5_Bucket_1: 593514
Non-critical_ROB_Stalls_Percent_5_Bucket_1: 173025
Critical_ROB_Stalls_Percent_5_Bucket_2: 265516
Non-critical_ROB_Stalls_Percent_5_Bucket_2: 69108
Critical_ROB_Stalls_Percent_5_Bucket_3: 93569
Non-critical_ROB_Stalls_Percent_5_Bucket_3: 28251
Critical_ROB_Stalls_Percent_5_Bucket_4: 28278
Non-critical_ROB_Stalls_Percent_5_Bucket_4: 7737
Critical_ROB_Stalls_Percent_5_Bucket_5: 7544
Non-critical_ROB_Stalls_Percent_5_Bucket_5: 1014
Critical_ROB_Stalls_Percent_5_Bucket_6: 13680
Non-critical_ROB_Stalls_Percent_5_Bucket_6: 10758
Critical_ROB_Stalls_Percent_6_Bucket_0: 1133010
Non-critical_ROB_Stalls_Percent_6_Bucket_0: 307910
Critical_ROB_Stalls_Percent_6_Bucket_1: 624749
Non-critical_ROB_Stalls_Percent_6_Bucket_1: 141790
Critical_ROB_Stalls_Percent_6_Bucket_2: 276693
Non-critical_ROB_Stalls_Percent_6_Bucket_2: 57931
Critical_ROB_Stalls_Percent_6_Bucket_3: 97739
Non-critical_ROB_Stalls_Percent_6_Bucket_3: 24081
Critical_ROB_Stalls_Percent_6_Bucket_4: 30747
Non-critical_ROB_Stalls_Percent_6_Bucket_4: 5268
Critical_ROB_Stalls_Percent_6_Bucket_5: 7579
Non-critical_ROB_Stalls_Percent_6_Bucket_5: 979
Critical_ROB_Stalls_Percent_6_Bucket_6: 16245
Non-critical_ROB_Stalls_Percent_6_Bucket_6: 8193
Critical_ROB_Stalls_Percent_7_Bucket_0: 1222103
Non-critical_ROB_Stalls_Percent_7_Bucket_0: 218817
Critical_ROB_Stalls_Percent_7_Bucket_1: 655077
Non-critical_ROB_Stalls_Percent_7_Bucket_1: 111462
Critical_ROB_Stalls_Percent_7_Bucket_2: 287716
Non-critical_ROB_Stalls_Percent_7_Bucket_2: 46908
Critical_ROB_Stalls_Percent_7_Bucket_3: 100493
Non-critical_ROB_Stalls_Percent_7_Bucket_3: 21327
Critical_ROB_Stalls_Percent_7_Bucket_4: 31568
Non-critical_ROB_Stalls_Percent_7_Bucket_4: 4447
Critical_ROB_Stalls_Percent_7_Bucket_5: 7660
Non-critical_ROB_Stalls_Percent_7_Bucket_5: 898
Critical_ROB_Stalls_Percent_7_Bucket_6: 18507
Non-critical_ROB_Stalls_Percent_7_Bucket_6: 5931
Critical_ROB_Stalls_Percent_8_Bucket_0: 1294685
Non-critical_ROB_Stalls_Percent_8_Bucket_0: 146235
Critical_ROB_Stalls_Percent_8_Bucket_1: 690603
Non-critical_ROB_Stalls_Percent_8_Bucket_1: 75936
Critical_ROB_Stalls_Percent_8_Bucket_2: 304936
Non-critical_ROB_Stalls_Percent_8_Bucket_2: 29688
Critical_ROB_Stalls_Percent_8_Bucket_3: 107446
Non-critical_ROB_Stalls_Percent_8_Bucket_3: 14374
Critical_ROB_Stalls_Percent_8_Bucket_4: 32858
Non-critical_ROB_Stalls_Percent_8_Bucket_4: 3157
Critical_ROB_Stalls_Percent_8_Bucket_5: 7883
Non-critical_ROB_Stalls_Percent_8_Bucket_5: 675
Critical_ROB_Stalls_Percent_8_Bucket_6: 21309
Non-critical_ROB_Stalls_Percent_8_Bucket_6: 3129
Average ROB occupancy Load Stall Begin: 52.2193
Average ROB occupancy Load Stall End: 63.2025
Min ROB occupancy Load Stall Begin: 1
Max ROB occupancy Load Stall Begin: 352
Min ROB occupancy Load Stall End: 1
Max ROB occupancy Load Stall End: 352
Average ROB occupancy Critical Load Stall Begin: 316.291
Average ROB occupancy Critical Load Stall End: 326.599
Min ROB occupancy Critical Load Stall Begin: 2
Max ROB occupancy Critical Load Stall Begin: 352
Min ROB occupancy Critical Load Stall End: 6
Max ROB occupancy Critical Load Stall End: 352
 ROB Load Stall Begin Bucket Count 0: 1724706
 ROB Load Stall End Bucket Count 0: 1440920
 ROB Critical Load Stall Begin Bucket Count 0: 1116
 ROB Critical Load Stall End Bucket Count 0: 208
 ROB Load Stall Begin Bucket Count 1: 622188
 ROB Load Stall End Bucket Count 1: 766539
 ROB Critical Load Stall Begin Bucket Count 1: 315
 ROB Critical Load Stall End Bucket Count 1: 1201
 ROB Load Stall Begin Bucket Count 2: 257543
 ROB Load Stall End Bucket Count 2: 334624
 ROB Critical Load Stall Begin Bucket Count 2: 219
 ROB Critical Load Stall End Bucket Count 2: 93
 ROB Load Stall Begin Bucket Count 3: 79968
 ROB Load Stall End Bucket Count 3: 121820
 ROB Critical Load Stall Begin Bucket Count 3: 84
 ROB Critical Load Stall End Bucket Count 3: 45
 ROB Load Stall Begin Bucket Count 4: 21116
 ROB Load Stall End Bucket Count 4: 36015
 ROB Critical Load Stall Begin Bucket Count 4: 125
 ROB Critical Load Stall End Bucket Count 4: 137
 ROB Load Stall Begin Bucket Count 5: 4373
 ROB Load Stall End Bucket Count 5: 8558
 ROB Critical Load Stall Begin Bucket Count 5: 597
 ROB Critical Load Stall End Bucket Count 5: 83
 ROB Load Stall Begin Bucket Count 6: 23020
 ROB Load Stall End Bucket Count 6: 24438
 ROB Critical Load Stall Begin Bucket Count 6: 16800
 ROB Critical Load Stall End Bucket Count 6: 17489
PIST Tag Read Accesses: 3053412
PIST Read Accesses: 1526706
PIST Tag Write Accesses: 3053412
PIST Write Accesses: 1526706
Criticality detector called times: 2713658
Max global_stall_cycles_count: 3089930
Threshold Modified: 1 times, factor: -1
Sturdy critical IP cache stats: 
 Unused entries: 0
CIC Tag Read Accesses: 0
CIC Read Accesses: 0
CIC Tag Write Accesses: 0
CIC Write Accesses: 0
Wobbly critical IP cache stats: 
 Unused entries: 113
CIC Tag Read Accesses: 76190077
CIC Read Accesses: 0
CIC Tag Write Accesses: 9072
CIC Write Accesses: 0
ITLB TOTAL     ACCESS:   10488567  HIT:    9882334  MISS:     606233  HIT %:    94.2201  MISS %:    5.77994   MPKI: 12.1247
ITLB LOAD TRANSLATION ACCESS:    8285990  HIT:    8260142  MISS:      25848  HIT %:    99.6881  MISS %:   0.311948   MPKI: 0.51696
ITLB TRANSLATION FROM L1D PREFETCHER ACCESS:    2202577  HIT:    1622192  MISS:     580385  HIT %:    73.6497  MISS %:    26.3503   MPKI: 11.6077
ITLBprefetch_cycle_count: 0 prefetches_per_prefetch_cycle: -nan
ITLB PREFETCH  REQUESTED:          0  ISSUED:          0  USEFUL:     515410  USELESS:      64976
ITLB USEFUL LOAD PREFETCHES:     515410 PREFETCH ISSUED TO LOWER LEVEL:          0  ACCURACY: inf
ITLB TIMELY PREFETCHES:     515410 LATE PREFETCHES: 69 DROPPED PREFETCHES: 1
ITLB PREFETCHES SAME FILL-ORIGIN LEVEL: 0 DIFFERENT FILL-ORIGIN LEVEL: 0
ITLB AVERAGE MISS LATENCY: 5629.64 cycles
ITLB RQ	ACCESS:   15810853	FORWARD:          0	MERGED:    5280690	TO_CACHE:   10530163

DTLB TOTAL     ACCESS:    9356063  HIT:    8908028  MISS:     448035  HIT %:    95.2113  MISS %:    4.78871   MPKI: 8.9607
DTLB LOAD TRANSLATION ACCESS:    9356063  HIT:    8908028  MISS:     448035  HIT %:    95.2113  MISS %:    4.78871   MPKI: 8.9607
DTLBprefetch_cycle_count: 0 prefetches_per_prefetch_cycle: -nan
DTLB PREFETCH  REQUESTED:          0  ISSUED:          0  USEFUL:          0  USELESS:          0
DTLB USEFUL LOAD PREFETCHES:          0 PREFETCH ISSUED TO LOWER LEVEL:          0  ACCURACY: -nan
DTLB TIMELY PREFETCHES:          0 LATE PREFETCHES: 0 DROPPED PREFETCHES: 0
DTLB PREFETCHES SAME FILL-ORIGIN LEVEL: 0 DIFFERENT FILL-ORIGIN LEVEL: 0
DTLB AVERAGE MISS LATENCY: 10.2488 cycles
DTLB RQ	ACCESS:   13303529	FORWARD:          0	MERGED:    3929560	TO_CACHE:    9373969

STLB TOTAL     ACCESS:    1181531  HIT:    1171737  MISS:       9794  HIT %:    99.1711  MISS %:   0.828925   MPKI: 0.19588
STLB LOAD TRANSLATION ACCESS:     473814  HIT:     464327  MISS:       9487  HIT %:    97.9977  MISS %:    2.00226   MPKI: 0.18974
STLB TRANSLATION FROM L1D PREFETCHER ACCESS:     707717  HIT:     707410  MISS:        307  HIT %:    99.9566  MISS %:  0.0433789   MPKI: 0.00614
STLBprefetch_cycle_count: 0 prefetches_per_prefetch_cycle: -nan
STLB PREFETCH  REQUESTED:          0  ISSUED:          0  USEFUL:        236  USELESS:         64
STLB USEFUL LOAD PREFETCHES:        236 PREFETCH ISSUED TO LOWER LEVEL:          0  ACCURACY: inf
STLB TIMELY PREFETCHES:        236 LATE PREFETCHES: 0 DROPPED PREFETCHES: 1
STLB PREFETCHES SAME FILL-ORIGIN LEVEL: 0 DIFFERENT FILL-ORIGIN LEVEL: 0
STLB AVERAGE MISS LATENCY: 62.9376 cycles
STLB RQ	ACCESS:    1186153	FORWARD:          0	MERGED:       4621	TO_CACHE:    1181532

STLB Hit, L1D data hit: 0
STLB Hit, L2C data hit: 0
STLB Hit, LLC data hit: 0
STLB Hit, LLC data miss: 0
STLB STLB hints to L2: 0
L1D TOTAL     ACCESS:   13271858  HIT:   12521049  MISS:     750809  HIT %:    94.3428  MISS %:    5.65715   MPKI: 15.0162
L1D LOAD      ACCESS:    6902794  HIT:    6316363  MISS:     586431  HIT %:    91.5044  MISS %:    8.49556   MPKI: 11.7286
L1D RFO       ACCESS:    6243700  HIT:    6139748  MISS:     103952  HIT %:    98.3351  MISS %:    1.66491   MPKI: 2.07904
L1D PREFETCH  ACCESS:     125364  HIT:      64938  MISS:      60426  HIT %:    51.7996  MISS %:    48.2004   MPKI: 1.20852
L1Dprefetch_cycle_count: 131899 prefetches_per_prefetch_cycle: 2.00009
L1D PREFETCH  REQUESTED:     263810  ISSUED:     263810  USEFUL:       7454  USELESS:      53026
L1D USEFUL LOAD PREFETCHES:       7454 PREFETCH ISSUED TO LOWER LEVEL:      60953  ACCURACY: 12.2291
L1D TIMELY PREFETCHES:       7454 LATE PREFETCHES: 518 DROPPED PREFETCHES: 0
L1D PREFETCHES SAME FILL-ORIGIN LEVEL: 60953 DIFFERENT FILL-ORIGIN LEVEL: 0
L1D AVERAGE MISS LATENCY: 36617 cycles
L1D RQ	ACCESS:   10471792	FORWARD:          0	MERGED:    3375697	TO_CACHE:    6935098
L1D WQ	ACCESS:    6507513	FORWARD:     161039	MERGED:     139082	TO_CACHE:    6368431
L1D PQ	ACCESS:     131926	FORWARD:          0	MERGED:          0	TO_CACHE:     131884

L1D UNIQUE REGIONS ACCESSED: 0
L1D REGIONS CONFLICTS: 0
L1D Cross Page Prefetch Requests: 0
L1D Same Page Prefetch Requests: 434996
L1D ROI Sum of L1D PQ occupancy: 1710009
L1D PREFETCHES PUSHED FROM L2C: 0
L1I TOTAL     ACCESS:   15721284  HIT:   11379279  MISS:    4342005  HIT %:    72.3814  MISS %:    27.6186   MPKI: 86.8401
L1I LOAD      ACCESS:    9775310  HIT:    9745743  MISS:      29567  HIT %:    99.6975  MISS %:   0.302466   MPKI: 0.59134
L1I PREFETCH  ACCESS:    5945974  HIT:    1633536  MISS:    4312438  HIT %:     27.473  MISS %:     72.527   MPKI: 86.2488
L1Iprefetch_cycle_count: 0 prefetches_per_prefetch_cycle: inf
L1I PREFETCH  REQUESTED:    6242677  ISSUED:    6226240  USEFUL:    3426152  USELESS:     886257
L1I USEFUL LOAD PREFETCHES:    3426152 PREFETCH ISSUED TO LOWER LEVEL:    4328978  ACCURACY: 79.1446
L1I TIMELY PREFETCHES:    3426152 LATE PREFETCHES: 16541 DROPPED PREFETCHES: 1
L1I PREFETCHES SAME FILL-ORIGIN LEVEL: 4328978 DIFFERENT FILL-ORIGIN LEVEL: 0
L1I AVERAGE MISS LATENCY: 202078 cycles
L1I RQ	ACCESS:   14207264	FORWARD:          0	MERGED:    4429651	TO_CACHE:    9777613
L1I PQ	ACCESS:    6226240	FORWARD:          0	MERGED:     193000	TO_CACHE:    6033240

BTB TOTAL     ACCESS:    6352892  HIT:    5366352  MISS:     986540  HIT %:     84.471  MISS %:     15.529   MPKI: 19.7308
BTB BRANCH_DIRECT_JUMP	ACCESS:     771899  HIT:     694689  MISS:      77210
BTB BRANCH_INDIRECT	ACCESS:     108179  HIT:      73521  MISS:      34658
BTB BRANCH_CONDITIONAL	ACCESS:    2927570  HIT:    2714481  MISS:     213089
BTB BRANCH_DIRECT_CALL	ACCESS:    1060892  HIT:     946633  MISS:     114259
BTB BRANCH_INDIRECT_CALL	ACCESS:     211719  HIT:     145244  MISS:      66475
BTB BRANCH_RETURN	ACCESS:    1272633  HIT:     791784  MISS:     480849
BTB BRANCH_OTHER ACCESS:          0  HIT:          0  MISS:          0

L2C TOTAL     ACCESS:    5352312  HIT:    5122230  MISS:     230082  HIT %:    95.7013  MISS %:    4.29874   MPKI: 4.60164
L2C LOAD      ACCESS:     598907  HIT:     430294  MISS:     168613  HIT %:    71.8465  MISS %:    28.1535   MPKI: 3.37226
L2C DATA LOAD MPKI: 3.34542
L2C INSTRUCTION LOAD MPKI: 0.02684
L2C RFO       ACCESS:     103940  HIT:      77666  MISS:      26274  HIT %:     74.722  MISS %:     25.278   MPKI: 0.52548
L2C PREFETCH  ACCESS:    4389931  HIT:    4362374  MISS:      27557  HIT %:    99.3723  MISS %:   0.627732   MPKI: 0.55114
L2C DATA PREFETCH MPKI: 0.28658
L2C INSTRUCTION PREFETCH MPKI: 0.26456
L2C WRITEBACK ACCESS:     248996  HIT:     245577  MISS:       3419  HIT %:    98.6269  MISS %:    1.37311   MPKI: 0.06838
L2C LOAD TRANSLATION ACCESS:      10168  HIT:       6186  MISS:       3982  HIT %:    60.8379  MISS %:    39.1621   MPKI: 0.07964
L2C TRANSLATION FROM L1D PREFETCHER ACCESS:        370  HIT:        133  MISS:        237  HIT %:    35.9459  MISS %:    64.0541   MPKI: 0.00474
L2Cprefetch_cycle_count: 0 prefetches_per_prefetch_cycle: -nan
L2C PREFETCH  REQUESTED:          0  ISSUED:          0  USEFUL:       1923  USELESS:      26225
L2C USEFUL LOAD PREFETCHES:       1923 PREFETCH ISSUED TO LOWER LEVEL:      27557  ACCURACY: 6.97826
L2C TIMELY PREFETCHES:       1923 LATE PREFETCHES: 0 DROPPED PREFETCHES: 0
L2C PREFETCHES SAME FILL-ORIGIN LEVEL: 0 DIFFERENT FILL-ORIGIN LEVEL: 0
L2C AVERAGE MISS LATENCY: 165.235 cycles
L2C RQ	ACCESS:     713420	FORWARD:          0	MERGED:          0	TO_CACHE:     713385
L2C WQ	ACCESS:     248996	FORWARD:         35	MERGED:          0	TO_CACHE:     248996
L2C PQ	ACCESS:    4389931	FORWARD:          0	MERGED:          0	TO_CACHE:    4389931

L2C Instructions Evicting Data 11383
L2C Translations Evicting Data 3945
L2C Data Evicting Data 193077
L2C Instructions Evicting Instructions 3044
L2C Translations Evicting Instructions 194
L2C Data Evicting Instructions 10875
L2C Instructions Evicting Translations 143
L2C Translations Evicting Translations 80
L2C Data Evicting Translations 3922
L2C Dense regions hint from L2: 0
PSCL5 TOTAL     ACCESS:       9795  HIT:       9795  MISS:          0  HIT %:        100  MISS %:          0   MPKI: 0
PSCL5 LOAD TRANSLATION ACCESS:       9487  HIT:       9487  MISS:          0  HIT %:        100  MISS %:          0   MPKI: 0
PSCL5 TRANSLATION FROM L1D PREFETCHER ACCESS:        308  HIT:        308  MISS:          0  HIT %:        100  MISS %:          0   MPKI: 0
PSCL5prefetch_cycle_count: 0 prefetches_per_prefetch_cycle: -nan
PSCL5 PREFETCH  REQUESTED:          0  ISSUED:          0  USEFUL:          0  USELESS:          0
PSCL5 USEFUL LOAD PREFETCHES:          0 PREFETCH ISSUED TO LOWER LEVEL:          0  ACCURACY: -nan
PSCL5 TIMELY PREFETCHES:          0 LATE PREFETCHES: 0 DROPPED PREFETCHES: 0
PSCL5 PREFETCHES SAME FILL-ORIGIN LEVEL: 0 DIFFERENT FILL-ORIGIN LEVEL: 0

PSCL4 TOTAL     ACCESS:       9407  HIT:       9374  MISS:         33  HIT %:    99.6492  MISS %:   0.350803   MPKI: 0.00066
PSCL4 LOAD TRANSLATION ACCESS:       9107  HIT:       9074  MISS:         33  HIT %:    99.6376  MISS %:   0.362359   MPKI: 0.00066
PSCL4 TRANSLATION FROM L1D PREFETCHER ACCESS:        300  HIT:        300  MISS:          0  HIT %:        100  MISS %:          0   MPKI: 0
PSCL4prefetch_cycle_count: 0 prefetches_per_prefetch_cycle: -nan
PSCL4 PREFETCH  REQUESTED:          0  ISSUED:          0  USEFUL:          0  USELESS:          0
PSCL4 USEFUL LOAD PREFETCHES:          0 PREFETCH ISSUED TO LOWER LEVEL:          0  ACCURACY: -nan
PSCL4 TIMELY PREFETCHES:          0 LATE PREFETCHES: 0 DROPPED PREFETCHES: 0
PSCL4 PREFETCHES SAME FILL-ORIGIN LEVEL: 0 DIFFERENT FILL-ORIGIN LEVEL: 0

PSCL3 TOTAL     ACCESS:       9618  HIT:       9585  MISS:         33  HIT %:    99.6569  MISS %:   0.343107   MPKI: 0.00066
PSCL3 LOAD TRANSLATION ACCESS:       9318  HIT:       9285  MISS:         33  HIT %:    99.6458  MISS %:   0.354153   MPKI: 0.00066
PSCL3 TRANSLATION FROM L1D PREFETCHER ACCESS:        300  HIT:        300  MISS:          0  HIT %:        100  MISS %:          0   MPKI: 0
PSCL3prefetch_cycle_count: 0 prefetches_per_prefetch_cycle: -nan
PSCL3 PREFETCH  REQUESTED:          0  ISSUED:          0  USEFUL:          0  USELESS:          0
PSCL3 USEFUL LOAD PREFETCHES:          0 PREFETCH ISSUED TO LOWER LEVEL:          0  ACCURACY: -nan
PSCL3 TIMELY PREFETCHES:          0 LATE PREFETCHES: 0 DROPPED PREFETCHES: 0
PSCL3 PREFETCHES SAME FILL-ORIGIN LEVEL: 0 DIFFERENT FILL-ORIGIN LEVEL: 0

PSCL2 TOTAL     ACCESS:       9795  HIT:       9116  MISS:        679  HIT %:    93.0679  MISS %:    6.93211   MPKI: 0.01358
PSCL2 LOAD TRANSLATION ACCESS:       9541  HIT:       8862  MISS:        679  HIT %:    92.8833  MISS %:    7.11665   MPKI: 0.01358
PSCL2 TRANSLATION FROM L1D PREFETCHER ACCESS:        254  HIT:        254  MISS:          0  HIT %:        100  MISS %:          0   MPKI: 0
PSCL2prefetch_cycle_count: 0 prefetches_per_prefetch_cycle: -nan
PSCL2 PREFETCH  REQUESTED:          0  ISSUED:          0  USEFUL:          0  USELESS:          0
PSCL2 USEFUL LOAD PREFETCHES:          0 PREFETCH ISSUED TO LOWER LEVEL:          0  ACCURACY: -nan
PSCL2 TIMELY PREFETCHES:          0 LATE PREFETCHES: 0 DROPPED PREFETCHES: 0
PSCL2 PREFETCHES SAME FILL-ORIGIN LEVEL: 0 DIFFERENT FILL-ORIGIN LEVEL: 0

LLC TOTAL     ACCESS:     322342  HIT:     137641  MISS:     184701  HIT %:    42.7003  MISS %:    57.2997   MPKI: 3.69402
LLC LOAD      ACCESS:     168613  HIT:      23136  MISS:     145477  HIT %:    13.7214  MISS %:    86.2786   MPKI: 2.90954
LLC RFO       ACCESS:      26274  HIT:       7952  MISS:      18322  HIT %:    30.2657  MISS %:    69.7343   MPKI: 0.36644
LLC PREFETCH  ACCESS:      27557  HIT:       9359  MISS:      18198  HIT %:    33.9623  MISS %:    66.0377   MPKI: 0.36396
LLC WRITEBACK ACCESS:      95679  HIT:      94163  MISS:       1516  HIT %:    98.4155  MISS %:    1.58446   MPKI: 0.03032
LLC LOAD TRANSLATION ACCESS:       3982  HIT:       2933  MISS:       1049  HIT %:    73.6565  MISS %:    26.3435   MPKI: 0.02098
LLC TRANSLATION FROM L1D PREFETCHER ACCESS:        237  HIT:         98  MISS:        139  HIT %:    41.3502  MISS %:    58.6498   MPKI: 0.00278
LLCprefetch_cycle_count: 0 prefetches_per_prefetch_cycle: -nan
LLC PREFETCH  REQUESTED:          0  ISSUED:          0  USEFUL:       1456  USELESS:      16176
LLC USEFUL LOAD PREFETCHES:       1456 PREFETCH ISSUED TO LOWER LEVEL:      18198  ACCURACY: 8.00088
LLC TIMELY PREFETCHES:       1456 LATE PREFETCHES: 0 DROPPED PREFETCHES: 0
LLC PREFETCHES SAME FILL-ORIGIN LEVEL: 0 DIFFERENT FILL-ORIGIN LEVEL: 0
LLC AVERAGE MISS LATENCY: 168.952 cycles
LLC RQ	ACCESS:     199106	FORWARD:          0	MERGED:          0	TO_CACHE:     199106
LLC WQ	ACCESS:      95679	FORWARD:          0	MERGED:          0	TO_CACHE:      95679
LLC PQ	ACCESS:      27557	FORWARD:          0	MERGED:          0	TO_CACHE:      27557

LLC Dense regions hint to LLC: 0

RAW hits: 1610918
Loads Generated: 12082709
Loads sent to L1D: 10471792
Stores Generated: 6507515
Stores sent to L1D: 6507513
Major fault: 0 Minor fault: 5644
Allocated PAGES: 5644
I-Shadow cache 408 bytes
Touched + WorthPF tables 6144 bytes 
MMA filter 174 bytes 
FNL filter 272 bytes 
TOTAL PREFETCHER STORAGE SIZE: 25174 bytes
CPU 0 L1I next line prefetcher final stats

total_pref_operate_instances_l1: 6935100
dynamic_config_counter_instances_1: 6928684
dynamic_config_counter_instances_2: 3953
dynamic_config_counter_instances_3: 2463
dynamic_config_counter_instances_4: 0
dynamic_config_counter_instances_5: 0
stream: 
stream:times selected: 639492
stream:pref_filled: 102402
stream:pref_useful: 13957
stream:pref_late: 1418
stream:misses: 9307
stream:misses_by_poll: 0

CS: 
CS:times selected: 38360
CS:pref_filled: 5782
CS:pref_useful: 2153
CS:pref_late: 28
CS:misses: 291
CS:misses_by_poll: 0

CPLX: 
CPLX:times selected: 622568
CPLX:pref_filled: 66323
CPLX:pref_useful: 5815
CPLX:pref_late: 898
CPLX:misses: 35394
CPLX:misses_by_poll: 0

NL_L1: 
NL:times selected: 169295
NL:pref_filled: 61213
NL:pref_useful: 7445
NL:pref_late: 403
NL:misses: 59586
NL:misses_by_poll: 36

total selections: 1469715
total_filled: 60426
total_useful: 7454
total_late: 2878
total_polluted: 36
total_misses_after_warmup: 618737
conflicts: 2876817
Degree Incremented Times: 0
Degree Decremented Times: 123476

L1 IP Table Write Accesses: 3847446
L1 IP Table Read Accesses: 970629
L1 RST Write Accesses: 338496
L1 RST Read Accesses: 676992
L1 CSPT Write Accesses: 338496
L1 CSPT Read Accesses: 338611
L1 RR Filter Tag Write Accesses: 131926
L1 RR Filter Tag Read Accesses: 5059259
L1 IP Table Tag Write Accesses: 6935100
L1 IP Table Tag Read Accesses: 6935100
L1 RST Tag Write Accesses: 0
L1 RST Tag Read Accesses: 3402391
L1 RR Filter Write Accesses: 0
L1 RR Filter Read Accesses: 168101
test: 316525

DRAM Statistics
 CHANNEL 0
 RQ ROW_BUFFER_HIT:      34806  ROW_BUFFER_MISS:     148374
 DBUS_CONGESTED:        377
 WQ ROW_BUFFER_HIT:      26978  ROW_BUFFER_MISS:      57772  FULL:          0

 AVG_CONGESTED_CYCLE: 4
 All warmup complete: 2
Channel 0 Bank busy for read cycles: 0
Channel 0 Bank busy for write cycles: 0
Channel 0
Rank 0
0banks busy for read cycles: 53202930
0banks busy for write cycles: 24252
1banks busy for read cycles: 9162695
1banks busy for write cycles: 3717470
2banks busy for read cycles: 3336514
2banks busy for write cycles: 1594078
3banks busy for read cycles: 1278318
3banks busy for write cycles: 883837
4banks busy for read cycles: 404160
4banks busy for write cycles: 557072
5banks busy for read cycles: 143426
5banks busy for write cycles: 386887
6banks busy for read cycles: 105641
6banks busy for write cycles: 313984
7banks busy for read cycles: 124469
7banks busy for write cycles: 317679
8banks busy for read cycles: 63650
8banks busy for write cycles: 283523

CPU 0 Branch Prediction Accuracy: 99.9115% MPKI: 0.17232 Average ROB Occupancy at Mispredict: 74.9067
Branch types
NOT_BRANCH: 40267215 80.5344%
BRANCH_DIRECT_JUMP: 771899 1.5438%
BRANCH_INDIRECT: 108179 0.216358%
BRANCH_CONDITIONAL: 6307160 12.6143%
BRANCH_DIRECT_CALL: 1060892 2.12178%
BRANCH_INDIRECT_CALL: 211719 0.423438%
BRANCH_RETURN: 1272633 2.54527%
BRANCH_OTHER: 0 0%

DRAM PAGES: 1048576
Allocated PAGES: 5644
