
*** ChampSim Multicore Out-of-Order Simulator ***

Warmup Instructions: 50000000
Simulation Instructions: 50000000
Number of CPUs: 1
LLC sets: 2048
LLC ways: 16
Off-chip DRAM Size: 4096 MB Channels: 1 Width: 64-bit Data Rate: 6400 MT/s
CPU 0 runs ../IPC-traces//server_021.champsimtrace.xz
.xz
NUM_OF_IPS_IN_CRITICAL_IP_TRAINING: 64
NUM_OF_CRITICAL_IP_TRAINING_TABLE_WAYS: 2
NUM_OF_CRITICAL_IP_TRAINING_TABLE_SETS: 32
WOBBLY_CRITICAL_IP_CACHE_SETS: 32
WOBBLY_CRITICAL_IP_CACHE_WAYS: 4
BTB has LRU replacement policy
ITLB has LRU replacement policy
DTLB has LRU replacement policy
STLB has LRU replacement policy
CPU 0 L1I next line prefetcher
L1I has LRU replacement policy
IP Table Entries: 256
L1D has LRU replacement policy
Initialize SRRIP state for L2C
Initialize DRRIP state for LLC
Heartbeat CPU 0 instructions: 10000000 cycles: 3301733 heartbeat IPC: 3.02871 cumulative IPC: 3.02871 (Simulation time: 0 hr 2 min 8 sec) 
Heartbeat CPU 0 instructions: 20000000 cycles: 6595127 heartbeat IPC: 3.03638 cumulative IPC: 3.03254 (Simulation time: 0 hr 4 min 16 sec) 
Heartbeat CPU 0 instructions: 30000000 cycles: 9922678 heartbeat IPC: 3.00521 cumulative IPC: 3.02338 (Simulation time: 0 hr 6 min 23 sec) 
Heartbeat CPU 0 instructions: 40000000 cycles: 13203945 heartbeat IPC: 3.0476 cumulative IPC: 3.0294 (Simulation time: 0 hr 8 min 29 sec) 
Heartbeat CPU 0 instructions: 50000000 cycles: 16516758 heartbeat IPC: 3.01858 cumulative IPC: 3.02723 (Simulation time: 0 hr 10 min 26 sec) 

Warmup complete CPU 0 instructions: 50000004 cycles: 16516759 (Simulation time: 0 hr 10 min 26 sec) 

Heartbeat CPU 0 instructions: 60000001 cycles: 35236377 heartbeat IPC: 0.534199 cumulative IPC: 0.534199 (Simulation time: 0 hr 13 min 32 sec) 
Heartbeat CPU 0 instructions: 70000000 cycles: 53408515 heartbeat IPC: 0.550293 cumulative IPC: 0.542126 (Simulation time: 0 hr 16 min 35 sec) 
Heartbeat CPU 0 instructions: 80000003 cycles: 71034137 heartbeat IPC: 0.567356 cumulative IPC: 0.550283 (Simulation time: 0 hr 19 min 35 sec) 
Heartbeat CPU 0 instructions: 90000000 cycles: 88712469 heartbeat IPC: 0.565664 cumulative IPC: 0.554049 (Simulation time: 0 hr 23 min 32 sec) 
Heartbeat CPU 0 instructions: 100000002 cycles: 106366727 heartbeat IPC: 0.566436 cumulative IPC: 0.556483 (Simulation time: 0 hr 27 min 59 sec) 
Finished CPU 0 instructions: 50000002 cycles: 89849969 cumulative IPC: 0.556483 (Simulation time: 0 hr 27 min 59 sec) 

ChampSim completed all CPUs

Region of Interest Statistics

CPU 0 cumulative IPC: 0.556483 instructions: 50000002 cycles: 89849969

CPU 0 Average Load ROB stall cycles: 2.82478e+07
CPU 0 Fraction of times ROB stalled by Loads: 45.5
CPU 0 Percentage of Load stall cycles in Total stall cycles: 2.78222e+08
Issued all: 48034686
Issued LT all: 42739848
rob_not_full_when_issued_lt_all: 16860653
Issued LT one: 36909191
rob_not_full_when_issued_lt_one: 12817124
 Total stall cycles: 72260333
 Total load stall cycles: 201044489459160
CPU 0 NUM of IPS identified critical: 0
CPU 0 Num of Load IPs stalling ROB: 4783
Threshold modification factor: 0
Max PIST entries: 64
Min PIST entries: 0
Avg PIST entries: 32
Trouble in retire width: 0.797532
MaC = Marked as critical.
lt_50_percent_before_Mac: 0
gt_90_percent_before_Mac: 0
gt_75_percent_before_Mac: 0
gt_50_percent_before_Mac: 0
stall_proportion_bin_same_before_after: 0
stall_proportion_bin_lower_before_after: 0
stall_proportion_bin_upper_before_after: 0
average_stall_proportion_before: -nan
average_stall_proportion_after: -nan
Critical IP stalls, total frequency: 0
Non-critical IP stalls, total frequency: 3238322
Total Freq all stalling IPs: 3238322
stat_90_percent_critical_ip_stalls_freq: 2914731
stat_90_percent_non_critical_ip_stalls_freq: 323591
Critical_IP_ROB_Stalls_Bucket_0: 0
Non-critical_IP_ROB_Stalls_Bucket_0: 504824
Critical_IP_ROB_Stalls_Bucket_1: 0
Non-critical_IP_ROB_Stalls_Bucket_1: 609027
Critical_IP_ROB_Stalls_Bucket_2: 0
Non-critical_IP_ROB_Stalls_Bucket_2: 431947
Critical_IP_ROB_Stalls_Bucket_3: 0
Non-critical_IP_ROB_Stalls_Bucket_3: 262040
Critical_IP_ROB_Stalls_Bucket_4: 0
Non-critical_IP_ROB_Stalls_Bucket_4: 170901
Critical_IP_ROB_Stalls_Bucket_5: 0
Non-critical_IP_ROB_Stalls_Bucket_5: 154626
Critical_IP_ROB_Stalls_Bucket_6: 0
Non-critical_IP_ROB_Stalls_Bucket_6: 1104957
0 => IPs accounting for >50 percent of stalls, 1 => 55, 2 => 60, 3 => 65 and so on till 90.
percent50: 50.2952 num IPs:  12
percent55: 55.0921 num IPs: 30
percent60: 60.0675 num IPs: 61
percent65: 65.0487 num IPs: 107
percent70: 70.0506 num IPs: 174
percent75: 75.0171 num IPs: 241
percent80: 80.0615 num IPs: 311
percent85: 85.0205 num IPs: 387
percent90: 90.0077 num IPs: 484
Critical_ROB_Stalls_Percent_0_Bucket_0: 53101
Non-critical_ROB_Stalls_Percent_0_Bucket_0: 451723
Critical_ROB_Stalls_Percent_0_Bucket_1: 112782
Non-critical_ROB_Stalls_Percent_0_Bucket_1: 496245
Critical_ROB_Stalls_Percent_0_Bucket_2: 122033
Non-critical_ROB_Stalls_Percent_0_Bucket_2: 309914
Critical_ROB_Stalls_Percent_0_Bucket_3: 136908
Non-critical_ROB_Stalls_Percent_0_Bucket_3: 125132
Critical_ROB_Stalls_Percent_0_Bucket_4: 113112
Non-critical_ROB_Stalls_Percent_0_Bucket_4: 57789
Critical_ROB_Stalls_Percent_0_Bucket_5: 106469
Non-critical_ROB_Stalls_Percent_0_Bucket_5: 48157
Critical_ROB_Stalls_Percent_0_Bucket_6: 984315
Non-critical_ROB_Stalls_Percent_0_Bucket_6: 120642
Critical_ROB_Stalls_Percent_1_Bucket_0: 125936
Non-critical_ROB_Stalls_Percent_1_Bucket_0: 378888
Critical_ROB_Stalls_Percent_1_Bucket_1: 156255
Non-critical_ROB_Stalls_Percent_1_Bucket_1: 452772
Critical_ROB_Stalls_Percent_1_Bucket_2: 141060
Non-critical_ROB_Stalls_Percent_1_Bucket_2: 290887
Critical_ROB_Stalls_Percent_1_Bucket_3: 144339
Non-critical_ROB_Stalls_Percent_1_Bucket_3: 117701
Critical_ROB_Stalls_Percent_1_Bucket_4: 117765
Non-critical_ROB_Stalls_Percent_1_Bucket_4: 53136
Critical_ROB_Stalls_Percent_1_Bucket_5: 109936
Non-critical_ROB_Stalls_Percent_1_Bucket_5: 44690
Critical_ROB_Stalls_Percent_1_Bucket_6: 988768
Non-critical_ROB_Stalls_Percent_1_Bucket_6: 116189
Critical_ROB_Stalls_Percent_2_Bucket_0: 173386
Non-critical_ROB_Stalls_Percent_2_Bucket_0: 331438
Critical_ROB_Stalls_Percent_2_Bucket_1: 194803
Non-critical_ROB_Stalls_Percent_2_Bucket_1: 414224
Critical_ROB_Stalls_Percent_2_Bucket_2: 171222
Non-critical_ROB_Stalls_Percent_2_Bucket_2: 260725
Critical_ROB_Stalls_Percent_2_Bucket_3: 150594
Non-critical_ROB_Stalls_Percent_2_Bucket_3: 111446
Critical_ROB_Stalls_Percent_2_Bucket_4: 122280
Non-critical_ROB_Stalls_Percent_2_Bucket_4: 48621
Critical_ROB_Stalls_Percent_2_Bucket_5: 118835
Non-critical_ROB_Stalls_Percent_2_Bucket_5: 35791
Critical_ROB_Stalls_Percent_2_Bucket_6: 1014060
Non-critical_ROB_Stalls_Percent_2_Bucket_6: 90897
Critical_ROB_Stalls_Percent_3_Bucket_0: 214616
Non-critical_ROB_Stalls_Percent_3_Bucket_0: 290208
Critical_ROB_Stalls_Percent_3_Bucket_1: 237739
Non-critical_ROB_Stalls_Percent_3_Bucket_1: 371288
Critical_ROB_Stalls_Percent_3_Bucket_2: 204659
Non-critical_ROB_Stalls_Percent_3_Bucket_2: 227288
Critical_ROB_Stalls_Percent_3_Bucket_3: 160575
Non-critical_ROB_Stalls_Percent_3_Bucket_3: 101465
Critical_ROB_Stalls_Percent_3_Bucket_4: 127652
Non-critical_ROB_Stalls_Percent_3_Bucket_4: 43249
Critical_ROB_Stalls_Percent_3_Bucket_5: 124888
Non-critical_ROB_Stalls_Percent_3_Bucket_5: 29738
Critical_ROB_Stalls_Percent_3_Bucket_6: 1036358
Non-critical_ROB_Stalls_Percent_3_Bucket_6: 68599
Critical_ROB_Stalls_Percent_4_Bucket_0: 230831
Non-critical_ROB_Stalls_Percent_4_Bucket_0: 273993
Critical_ROB_Stalls_Percent_4_Bucket_1: 297865
Non-critical_ROB_Stalls_Percent_4_Bucket_1: 311162
Critical_ROB_Stalls_Percent_4_Bucket_2: 239065
Non-critical_ROB_Stalls_Percent_4_Bucket_2: 192882
Critical_ROB_Stalls_Percent_4_Bucket_3: 185582
Non-critical_ROB_Stalls_Percent_4_Bucket_3: 76458
Critical_ROB_Stalls_Percent_4_Bucket_4: 142756
Non-critical_ROB_Stalls_Percent_4_Bucket_4: 28145
Critical_ROB_Stalls_Percent_4_Bucket_5: 131928
Non-critical_ROB_Stalls_Percent_4_Bucket_5: 22698
Critical_ROB_Stalls_Percent_4_Bucket_6: 1040432
Non-critical_ROB_Stalls_Percent_4_Bucket_6: 64525
Critical_ROB_Stalls_Percent_5_Bucket_0: 260019
Non-critical_ROB_Stalls_Percent_5_Bucket_0: 244805
Critical_ROB_Stalls_Percent_5_Bucket_1: 348344
Non-critical_ROB_Stalls_Percent_5_Bucket_1: 260683
Critical_ROB_Stalls_Percent_5_Bucket_2: 284109
Non-critical_ROB_Stalls_Percent_5_Bucket_2: 147838
Critical_ROB_Stalls_Percent_5_Bucket_3: 203101
Non-critical_ROB_Stalls_Percent_5_Bucket_3: 58939
Critical_ROB_Stalls_Percent_5_Bucket_4: 148976
Non-critical_ROB_Stalls_Percent_5_Bucket_4: 21925
Critical_ROB_Stalls_Percent_5_Bucket_5: 136324
Non-critical_ROB_Stalls_Percent_5_Bucket_5: 18302
Critical_ROB_Stalls_Percent_5_Bucket_6: 1048418
Non-critical_ROB_Stalls_Percent_5_Bucket_6: 56539
Critical_ROB_Stalls_Percent_6_Bucket_0: 308021
Non-critical_ROB_Stalls_Percent_6_Bucket_0: 196803
Critical_ROB_Stalls_Percent_6_Bucket_1: 415949
Non-critical_ROB_Stalls_Percent_6_Bucket_1: 193078
Critical_ROB_Stalls_Percent_6_Bucket_2: 311805
Non-critical_ROB_Stalls_Percent_6_Bucket_2: 120142
Critical_ROB_Stalls_Percent_6_Bucket_3: 211997
Non-critical_ROB_Stalls_Percent_6_Bucket_3: 50043
Critical_ROB_Stalls_Percent_6_Bucket_4: 152126
Non-critical_ROB_Stalls_Percent_6_Bucket_4: 18775
Critical_ROB_Stalls_Percent_6_Bucket_5: 138982
Non-critical_ROB_Stalls_Percent_6_Bucket_5: 15644
Critical_ROB_Stalls_Percent_6_Bucket_6: 1053762
Non-critical_ROB_Stalls_Percent_6_Bucket_6: 51195
Critical_ROB_Stalls_Percent_7_Bucket_0: 351733
Non-critical_ROB_Stalls_Percent_7_Bucket_0: 153091
Critical_ROB_Stalls_Percent_7_Bucket_1: 460403
Non-critical_ROB_Stalls_Percent_7_Bucket_1: 148624
Critical_ROB_Stalls_Percent_7_Bucket_2: 356053
Non-critical_ROB_Stalls_Percent_7_Bucket_2: 75894
Critical_ROB_Stalls_Percent_7_Bucket_3: 225318
Non-critical_ROB_Stalls_Percent_7_Bucket_3: 36722
Critical_ROB_Stalls_Percent_7_Bucket_4: 156840
Non-critical_ROB_Stalls_Percent_7_Bucket_4: 14061
Critical_ROB_Stalls_Percent_7_Bucket_5: 140953
Non-critical_ROB_Stalls_Percent_7_Bucket_5: 13673
Critical_ROB_Stalls_Percent_7_Bucket_6: 1061931
Non-critical_ROB_Stalls_Percent_7_Bucket_6: 43026
Critical_ROB_Stalls_Percent_8_Bucket_0: 404007
Non-critical_ROB_Stalls_Percent_8_Bucket_0: 100817
Critical_ROB_Stalls_Percent_8_Bucket_1: 510148
Non-critical_ROB_Stalls_Percent_8_Bucket_1: 98879
Critical_ROB_Stalls_Percent_8_Bucket_2: 379451
Non-critical_ROB_Stalls_Percent_8_Bucket_2: 52496
Critical_ROB_Stalls_Percent_8_Bucket_3: 234864
Non-critical_ROB_Stalls_Percent_8_Bucket_3: 27176
Critical_ROB_Stalls_Percent_8_Bucket_4: 160726
Non-critical_ROB_Stalls_Percent_8_Bucket_4: 10175
Critical_ROB_Stalls_Percent_8_Bucket_5: 147102
Non-critical_ROB_Stalls_Percent_8_Bucket_5: 7524
Critical_ROB_Stalls_Percent_8_Bucket_6: 1078433
Non-critical_ROB_Stalls_Percent_8_Bucket_6: 26524
Average ROB occupancy Load Stall Begin: 184.595
Average ROB occupancy Load Stall End: 192.987
Min ROB occupancy Load Stall Begin: 1
Max ROB occupancy Load Stall Begin: 352
Min ROB occupancy Load Stall End: 1
Max ROB occupancy Load Stall End: 352
Average ROB occupancy Critical Load Stall Begin: -nan
Average ROB occupancy Critical Load Stall End: -nan
Min ROB occupancy Critical Load Stall Begin: 400
Max ROB occupancy Critical Load Stall Begin: 0
Min ROB occupancy Critical Load Stall End: 400
Max ROB occupancy Critical Load Stall End: 0
 ROB Load Stall Begin Bucket Count 0: 710062
 ROB Load Stall End Bucket Count 0: 504824
 ROB Critical Load Stall Begin Bucket Count 0: 0
 ROB Critical Load Stall End Bucket Count 0: 0
 ROB Load Stall Begin Bucket Count 1: 534054
 ROB Load Stall End Bucket Count 1: 609027
 ROB Critical Load Stall Begin Bucket Count 1: 0
 ROB Critical Load Stall End Bucket Count 1: 0
 ROB Load Stall Begin Bucket Count 2: 381856
 ROB Load Stall End Bucket Count 2: 431947
 ROB Critical Load Stall Begin Bucket Count 2: 0
 ROB Critical Load Stall End Bucket Count 2: 0
 ROB Load Stall Begin Bucket Count 3: 222459
 ROB Load Stall End Bucket Count 3: 262040
 ROB Critical Load Stall Begin Bucket Count 3: 0
 ROB Critical Load Stall End Bucket Count 3: 0
 ROB Load Stall Begin Bucket Count 4: 158455
 ROB Load Stall End Bucket Count 4: 170901
 ROB Critical Load Stall Begin Bucket Count 4: 0
 ROB Critical Load Stall End Bucket Count 4: 0
 ROB Load Stall Begin Bucket Count 5: 155445
 ROB Load Stall End Bucket Count 5: 154626
 ROB Critical Load Stall Begin Bucket Count 5: 0
 ROB Critical Load Stall End Bucket Count 5: 0
 ROB Load Stall Begin Bucket Count 6: 1075991
 ROB Load Stall End Bucket Count 6: 1104957
 ROB Critical Load Stall Begin Bucket Count 6: 0
 ROB Critical Load Stall End Bucket Count 6: 0
PIST Tag Read Accesses: 2508230
PIST Read Accesses: 1254115
PIST Tag Write Accesses: 2508230
PIST Write Accesses: 1254115
Criticality detector called times: 1775443
Max global_stall_cycles_count: 3693950
Threshold Modified: 0 times, factor: 0
Sturdy critical IP cache stats: 
 Unused entries: 0
CIC Tag Read Accesses: 0
CIC Read Accesses: 0
CIC Tag Write Accesses: 0
CIC Write Accesses: 0
Wobbly critical IP cache stats: 
 Unused entries: 121
CIC Tag Read Accesses: 173444570
CIC Read Accesses: 0
CIC Tag Write Accesses: 7
CIC Write Accesses: 0
ITLB TOTAL     ACCESS:   10326368  HIT:    9822673  MISS:     503695  HIT %:    95.1222  MISS %:    4.87776   MPKI: 10.0739
ITLB LOAD TRANSLATION ACCESS:    8395715  HIT:    8383263  MISS:      12452  HIT %:    99.8517  MISS %:   0.148314   MPKI: 0.24904
ITLB TRANSLATION FROM L1D PREFETCHER ACCESS:    1930653  HIT:    1439410  MISS:     491243  HIT %:    74.5556  MISS %:    25.4444   MPKI: 9.82486
ITLB PREFETCH  REQUESTED:          0  ISSUED:          0  USEFUL:     431554  USELESS:      59694
ITLB USEFUL LOAD PREFETCHES:     431554 PREFETCH ISSUED TO LOWER LEVEL:          0  ACCURACY: inf
ITLB TIMELY PREFETCHES:     431554 LATE PREFETCHES: 157 DROPPED PREFETCHES: 0
ITLB PREFETCHES SAME FILL-ORIGIN LEVEL: 0 DIFFERENT FILL-ORIGIN LEVEL: 0
ITLB AVERAGE MISS LATENCY: 20308.5 cycles
ITLB RQ	ACCESS:   14873944	FORWARD:          0	MERGED:    4497434	TO_CACHE:   10376510

DTLB TOTAL     ACCESS:   10876886  HIT:   10472991  MISS:     403895  HIT %:    96.2867  MISS %:    3.71333   MPKI: 8.0779
DTLB LOAD TRANSLATION ACCESS:   10876886  HIT:   10472991  MISS:     403895  HIT %:    96.2867  MISS %:    3.71333   MPKI: 8.0779
DTLB PREFETCH  REQUESTED:          0  ISSUED:          0  USEFUL:          0  USELESS:          0
DTLB USEFUL LOAD PREFETCHES:          0 PREFETCH ISSUED TO LOWER LEVEL:          0  ACCURACY: -nan
DTLB TIMELY PREFETCHES:          0 LATE PREFETCHES: 0 DROPPED PREFETCHES: 0
DTLB PREFETCHES SAME FILL-ORIGIN LEVEL: 0 DIFFERENT FILL-ORIGIN LEVEL: 0
DTLB AVERAGE MISS LATENCY: 16.4609 cycles
DTLB RQ	ACCESS:   16200111	FORWARD:          0	MERGED:    5238596	TO_CACHE:   10961515

STLB TOTAL     ACCESS:    1460425  HIT:    1440097  MISS:      20328  HIT %:    98.6081  MISS %:    1.39192   MPKI: 0.40656
STLB LOAD TRANSLATION ACCESS:     416190  HIT:     396258  MISS:      19932  HIT %:    95.2108  MISS %:    4.78916   MPKI: 0.39864
STLB TRANSLATION FROM L1D PREFETCHER ACCESS:    1044235  HIT:    1043839  MISS:        396  HIT %:    99.9621  MISS %:  0.0379225   MPKI: 0.00792
STLB PREFETCH  REQUESTED:          0  ISSUED:          0  USEFUL:        176  USELESS:        205
STLB USEFUL LOAD PREFETCHES:        176 PREFETCH ISSUED TO LOWER LEVEL:          0  ACCURACY: inf
STLB TIMELY PREFETCHES:        176 LATE PREFETCHES: 0 DROPPED PREFETCHES: 0
STLB PREFETCHES SAME FILL-ORIGIN LEVEL: 0 DIFFERENT FILL-ORIGIN LEVEL: 0
STLB AVERAGE MISS LATENCY: 154.384 cycles
STLB RQ	ACCESS:    1531360	FORWARD:          0	MERGED:      70935	TO_CACHE:    1460425

STLB Hit, L1D data hit: 0
STLB Hit, L2C data hit: 0
STLB Hit, LLC data hit: 0
STLB Hit, LLC data miss: 0
STLB STLB hints to L2: 0
L1D TOTAL     ACCESS:   14300012  HIT:   12459961  MISS:    1840051  HIT %:    87.1325  MISS %:    12.8675   MPKI: 36.801
L1D LOAD      ACCESS:    7390911  HIT:    6885123  MISS:     505788  HIT %:    93.1566  MISS %:    6.84338   MPKI: 10.1158
L1D RFO       ACCESS:    6297981  HIT:    5306263  MISS:     991718  HIT %:    84.2534  MISS %:    15.7466   MPKI: 19.8344
L1D PREFETCH  ACCESS:     611120  HIT:     268575  MISS:     342545  HIT %:     43.948  MISS %:     56.052   MPKI: 6.8509
L1D PREFETCH  REQUESTED:    1247540  ISSUED:    1247540  USEFUL:     318567  USELESS:      23948
L1D USEFUL LOAD PREFETCHES:     318567 PREFETCH ISSUED TO LOWER LEVEL:     354215  ACCURACY: 89.9361
L1D TIMELY PREFETCHES:     318567 LATE PREFETCHES: 11670 DROPPED PREFETCHES: 0
L1D PREFETCHES SAME FILL-ORIGIN LEVEL: 354215 DIFFERENT FILL-ORIGIN LEVEL: 0
L1D AVERAGE MISS LATENCY: 343956 cycles
L1D RQ	ACCESS:   11074884	FORWARD:          0	MERGED:    3519824	TO_CACHE:    7431184
L1D WQ	ACCESS:    8864293	FORWARD:     123876	MERGED:      95366	TO_CACHE:    8768927
L1D PQ	ACCESS:     623770	FORWARD:          0	MERGED:          0	TO_CACHE:     623770

L1D UNIQUE REGIONS ACCESSED: 0
L1D REGIONS CONFLICTS: 0
L1D Cross Page Prefetch Requests: 0
L1D Same Page Prefetch Requests: 623770
L1D ROI Sum of L1D PQ occupancy: 9890601
L1D PREFETCHES PUSHED FROM L2C: 0
L1I TOTAL     ACCESS:   14790630  HIT:   11567053  MISS:    3223577  HIT %:    78.2053  MISS %:    21.7947   MPKI: 64.4715
L1I LOAD      ACCESS:    9798396  HIT:    9781181  MISS:      17215  HIT %:    99.8243  MISS %:   0.175692   MPKI: 0.3443
L1I PREFETCH  ACCESS:    4992234  HIT:    1785872  MISS:    3206362  HIT %:     35.773  MISS %:     64.227   MPKI: 64.1272
L1I PREFETCH  REQUESTED:    5255572  ISSUED:    5253080  USEFUL:    2662130  USELESS:     544256
L1I USEFUL LOAD PREFETCHES:    2662130 PREFETCH ISSUED TO LOWER LEVEL:    3212029  ACCURACY: 82.88
L1I TIMELY PREFETCHES:    2662130 LATE PREFETCHES: 5666 DROPPED PREFETCHES: 0
L1I PREFETCHES SAME FILL-ORIGIN LEVEL: 3212029 DIFFERENT FILL-ORIGIN LEVEL: 0
L1I AVERAGE MISS LATENCY: 112771 cycles
L1I RQ	ACCESS:   14094365	FORWARD:          0	MERGED:    4292809	TO_CACHE:    9801556
L1I PQ	ACCESS:    5253080	FORWARD:          0	MERGED:     180692	TO_CACHE:    5072388

BTB TOTAL     ACCESS:    5300075  HIT:    5041527  MISS:     258548  HIT %:    95.1218  MISS %:     4.8782   MPKI: 5.17096
BTB BRANCH_DIRECT_JUMP	ACCESS:     445212  HIT:     443383  MISS:       1829
BTB BRANCH_INDIRECT	ACCESS:      50481  HIT:      50386  MISS:         95
BTB BRANCH_CONDITIONAL	ACCESS:    2966952  HIT:    2961198  MISS:       5754
BTB BRANCH_DIRECT_CALL	ACCESS:     758223  HIT:     754416  MISS:       3807
BTB BRANCH_INDIRECT_CALL	ACCESS:     160492  HIT:     130806  MISS:      29686
BTB BRANCH_RETURN	ACCESS:     918715  HIT:     701338  MISS:     217377
BTB BRANCH_OTHER ACCESS:          0  HIT:          0  MISS:          0

L2C TOTAL     ACCESS:    6253198  HIT:    4448433  MISS:    1804765  HIT %:    71.1385  MISS %:    28.8615   MPKI: 36.0953
L2C LOAD      ACCESS:     505655  HIT:     169472  MISS:     336183  HIT %:    33.5153  MISS %:    66.4847   MPKI: 6.72366
L2C DATA LOAD MPKI: 6.64562
L2C INSTRUCTION LOAD MPKI: 0.07804
L2C RFO       ACCESS:     991715  HIT:      40887  MISS:     950828  HIT %:    4.12286  MISS %:    95.8771   MPKI: 19.0166
L2C PREFETCH  ACCESS:    3566243  HIT:    3099067  MISS:     467176  HIT %:    86.9001  MISS %:    13.0999   MPKI: 9.34352
L2C DATA PREFETCH MPKI: 6.30344
L2C INSTRUCTION PREFETCH MPKI: 3.04008
L2C WRITEBACK ACCESS:    1167720  HIT:    1126381  MISS:      41339  HIT %:    96.4599  MISS %:    3.54015   MPKI: 0.82678
L2C LOAD TRANSLATION ACCESS:      21300  HIT:      12502  MISS:       8798  HIT %:    58.6948  MISS %:    41.3052   MPKI: 0.17596
L2C TRANSLATION FROM L1D PREFETCHER ACCESS:        565  HIT:        124  MISS:        441  HIT %:    21.9469  MISS %:    78.0531   MPKI: 0.00882
L2C PREFETCH  REQUESTED:          0  ISSUED:          0  USEFUL:       2805  USELESS:     464135
L2C USEFUL LOAD PREFETCHES:       2805 PREFETCH ISSUED TO LOWER LEVEL:     467176  ACCURACY: 0.600416
L2C TIMELY PREFETCHES:       2805 LATE PREFETCHES: 0 DROPPED PREFETCHES: 0
L2C PREFETCHES SAME FILL-ORIGIN LEVEL: 0 DIFFERENT FILL-ORIGIN LEVEL: 0
L2C AVERAGE MISS LATENCY: 170.457 cycles
L2C RQ	ACCESS:    1519250	FORWARD:          0	MERGED:          0	TO_CACHE:    1519235
L2C WQ	ACCESS:    1167720	FORWARD:         15	MERGED:          0	TO_CACHE:    1167720
L2C PQ	ACCESS:    3566244	FORWARD:          0	MERGED:          0	TO_CACHE:    3566244

L2C Instructions Evicting Data 143588
L2C Translations Evicting Data 8371
L2C Data Evicting Data 1449905
L2C Instructions Evicting Instructions 11544
L2C Translations Evicting Instructions 830
L2C Data Evicting Instructions 140123
L2C Instructions Evicting Translations 774
L2C Translations Evicting Translations 38
L2C Data Evicting Translations 8253
L2C Dense regions hint from L2: 0
PSCL5 TOTAL     ACCESS:      20328  HIT:      20328  MISS:          0  HIT %:        100  MISS %:          0   MPKI: 0
PSCL5 LOAD TRANSLATION ACCESS:      19932  HIT:      19932  MISS:          0  HIT %:        100  MISS %:          0   MPKI: 0
PSCL5 TRANSLATION FROM L1D PREFETCHER ACCESS:        396  HIT:        396  MISS:          0  HIT %:        100  MISS %:          0   MPKI: 0
PSCL5 PREFETCH  REQUESTED:          0  ISSUED:          0  USEFUL:          0  USELESS:          0
PSCL5 USEFUL LOAD PREFETCHES:          0 PREFETCH ISSUED TO LOWER LEVEL:          0  ACCURACY: -nan
PSCL5 TIMELY PREFETCHES:          0 LATE PREFETCHES: 0 DROPPED PREFETCHES: 0
PSCL5 PREFETCHES SAME FILL-ORIGIN LEVEL: 0 DIFFERENT FILL-ORIGIN LEVEL: 0

PSCL4 TOTAL     ACCESS:      19569  HIT:      19526  MISS:         43  HIT %:    99.7803  MISS %:   0.219735   MPKI: 0.00086
PSCL4 LOAD TRANSLATION ACCESS:      19186  HIT:      19143  MISS:         43  HIT %:    99.7759  MISS %:   0.224122   MPKI: 0.00086
PSCL4 TRANSLATION FROM L1D PREFETCHER ACCESS:        383  HIT:        383  MISS:          0  HIT %:        100  MISS %:          0   MPKI: 0
PSCL4 PREFETCH  REQUESTED:          0  ISSUED:          0  USEFUL:          0  USELESS:          0
PSCL4 USEFUL LOAD PREFETCHES:          0 PREFETCH ISSUED TO LOWER LEVEL:          0  ACCURACY: -nan
PSCL4 TIMELY PREFETCHES:          0 LATE PREFETCHES: 0 DROPPED PREFETCHES: 0
PSCL4 PREFETCHES SAME FILL-ORIGIN LEVEL: 0 DIFFERENT FILL-ORIGIN LEVEL: 0

PSCL3 TOTAL     ACCESS:      19930  HIT:      19887  MISS:         43  HIT %:    99.7842  MISS %:   0.215755   MPKI: 0.00086
PSCL3 LOAD TRANSLATION ACCESS:      19547  HIT:      19504  MISS:         43  HIT %:      99.78  MISS %:   0.219983   MPKI: 0.00086
PSCL3 TRANSLATION FROM L1D PREFETCHER ACCESS:        383  HIT:        383  MISS:          0  HIT %:        100  MISS %:          0   MPKI: 0
PSCL3 PREFETCH  REQUESTED:          0  ISSUED:          0  USEFUL:          0  USELESS:          0
PSCL3 USEFUL LOAD PREFETCHES:          0 PREFETCH ISSUED TO LOWER LEVEL:          0  ACCURACY: -nan
PSCL3 TIMELY PREFETCHES:          0 LATE PREFETCHES: 0 DROPPED PREFETCHES: 0
PSCL3 PREFETCHES SAME FILL-ORIGIN LEVEL: 0 DIFFERENT FILL-ORIGIN LEVEL: 0

PSCL2 TOTAL     ACCESS:      20328  HIT:      18853  MISS:       1475  HIT %:     92.744  MISS %:      7.256   MPKI: 0.0295
PSCL2 LOAD TRANSLATION ACCESS:      20077  HIT:      18602  MISS:       1475  HIT %:    92.6533  MISS %:    7.34672   MPKI: 0.0295
PSCL2 TRANSLATION FROM L1D PREFETCHER ACCESS:        251  HIT:        251  MISS:          0  HIT %:        100  MISS %:          0   MPKI: 0
PSCL2 PREFETCH  REQUESTED:          0  ISSUED:          0  USEFUL:          0  USELESS:          0
PSCL2 USEFUL LOAD PREFETCHES:          0 PREFETCH ISSUED TO LOWER LEVEL:          0  ACCURACY: -nan
PSCL2 TIMELY PREFETCHES:          0 LATE PREFETCHES: 0 DROPPED PREFETCHES: 0
PSCL2 PREFETCHES SAME FILL-ORIGIN LEVEL: 0 DIFFERENT FILL-ORIGIN LEVEL: 0

LLC TOTAL     ACCESS:    2849305  HIT:    1290530  MISS:    1558775  HIT %:    45.2928  MISS %:    54.7072   MPKI: 31.1755
LLC LOAD      ACCESS:     336182  HIT:     283801  MISS:      52381  HIT %:    84.4189  MISS %:    15.5811   MPKI: 1.04762
LLC RFO       ACCESS:     950826  HIT:     236784  MISS:     714042  HIT %:     24.903  MISS %:     75.097   MPKI: 14.2808
LLC PREFETCH  ACCESS:     467176  HIT:     160026  MISS:     307150  HIT %:    34.2539  MISS %:    65.7461   MPKI: 6.143
LLC WRITEBACK ACCESS:    1085882  HIT:     606388  MISS:     479494  HIT %:    55.8429  MISS %:    44.1571   MPKI: 9.58988
LLC LOAD TRANSLATION ACCESS:       8798  HIT:       3368  MISS:       5430  HIT %:    38.2814  MISS %:    61.7186   MPKI: 0.1086
LLC TRANSLATION FROM L1D PREFETCHER ACCESS:        441  HIT:        163  MISS:        278  HIT %:    36.9615  MISS %:    63.0385   MPKI: 0.00556
LLC PREFETCH  REQUESTED:          0  ISSUED:          0  USEFUL:        888  USELESS:     305603
LLC USEFUL LOAD PREFETCHES:        888 PREFETCH ISSUED TO LOWER LEVEL:     307150  ACCURACY: 0.28911
LLC TIMELY PREFETCHES:        888 LATE PREFETCHES: 0 DROPPED PREFETCHES: 0
LLC PREFETCHES SAME FILL-ORIGIN LEVEL: 0 DIFFERENT FILL-ORIGIN LEVEL: 0
LLC AVERAGE MISS LATENCY: 161.803 cycles
LLC RQ	ACCESS:    1296250	FORWARD:          0	MERGED:          0	TO_CACHE:    1296247
LLC WQ	ACCESS:    1085882	FORWARD:          3	MERGED:          0	TO_CACHE:    1085882
LLC PQ	ACCESS:     467176	FORWARD:          0	MERGED:          0	TO_CACHE:     467176

LLC Dense regions hint to LLC: 0

RAW hits: 1390728
Loads Generated: 12465612
Loads sent to L1D: 11074884
Stores Generated: 8864282
Stores sent to L1D: 8864293
Major fault: 0 Minor fault: 22424
Allocated PAGES: 22424
I-Shadow cache 408 bytes
Touched + WorthPF tables 6144 bytes 
MMA filter 174 bytes 
FNL filter 272 bytes 
TOTAL PREFETCHER STORAGE SIZE: 25174 bytes
CPU 0 L1I next line prefetcher final stats

stream: 
stream:times selected: 1472032
stream:pref_filled: 341151
stream:pref_useful: 317224
stream:pref_late: 10382
stream:misses: 0
stream:misses_by_poll: 0

CS: 
CS:times selected: 1471325
CS:pref_filled: 1347
CS:pref_useful: 1331
CS:pref_late: 521
CS:misses: 14576
CS:misses_by_poll: 17

CPLX: 
CPLX:times selected: 694
CPLX:pref_filled: 47
CPLX:pref_useful: 12
CPLX:pref_late: 1
CPLX:misses: 13
CPLX:misses_by_poll: 0

NL_L1: 
NL:times selected: 0
NL:pref_filled: 0
NL:pref_useful: 0
NL:pref_late: 0
NL:misses: 0
NL:misses_by_poll: 0

total selections: 2944051
total_filled: 342545
total_useful: 318567
total_late: 11670
total_polluted: 17
total_misses_after_warmup: 14596
conflicts: 7
Degree Incremented Times: 11878
Degree Decremented Times: 0

L1 IP Table Write Accesses: 1482024
L1 IP Table Read Accesses: 1482017
L1 RST Write Accesses: 1472035
L1 RST Read Accesses: 2944061
L1 CSPT Write Accesses: 1472035
L1 CSPT Read Accesses: 1474101
L1 RR Filter Tag Write Accesses: 623770
L1 RR Filter Tag Read Accesses: 372855066
L1 IP Table Tag Write Accesses: 1482024
L1 IP Table Tag Read Accesses: 1482024
L1 RST Tag Write Accesses: 56
L1 RST Tag Read Accesses: 13315565
L1 RR Filter Write Accesses: 0
L1 RR Filter Read Accesses: 12747625
test: 33624

DRAM Statistics
 CHANNEL 0
 RQ ROW_BUFFER_HIT:     467462  ROW_BUFFER_MISS:     611707
 DBUS_CONGESTED:        523
 WQ ROW_BUFFER_HIT:     166126  ROW_BUFFER_MISS:     569016  FULL:      14447

 AVG_CONGESTED_CYCLE: 3
 All warmup complete: 2
Channel 0 Bank busy for read cycles: 0
Channel 0 Bank busy for write cycles: 0
Channel 0
Rank 0
0banks busy for read cycles: 27188827
0banks busy for write cycles: 49141
1banks busy for read cycles: 11448938
1banks busy for write cycles: 7005820
2banks busy for read cycles: 8944678
2banks busy for write cycles: 2932508
3banks busy for read cycles: 4000824
3banks busy for write cycles: 1505266
4banks busy for read cycles: 3123940
4banks busy for write cycles: 1066730
5banks busy for read cycles: 1094369
5banks busy for write cycles: 943089
6banks busy for read cycles: 1160936
6banks busy for write cycles: 921603
7banks busy for read cycles: 1787326
7banks busy for write cycles: 1639523
8banks busy for read cycles: 4829709
8banks busy for write cycles: 10206743

CPU 0 Branch Prediction Accuracy: 99.8303% MPKI: 0.27836 Average ROB Occupancy at Mispredict: 111.218
Branch types
NOT_BRANCH: 41798375 83.5967%
BRANCH_DIRECT_JUMP: 445212 0.890424%
BRANCH_INDIRECT: 50481 0.100962%
BRANCH_CONDITIONAL: 5868224 11.7364%
BRANCH_DIRECT_CALL: 758223 1.51645%
BRANCH_INDIRECT_CALL: 160492 0.320984%
BRANCH_RETURN: 918715 1.83743%
BRANCH_OTHER: 0 0%

DRAM PAGES: 1048576
Allocated PAGES: 22424
