Initialize SIGNATURE TABLE
ST_SET: 1
ST_WAY: 16
ST_TAG_BIT: 16
ST_TAG_MASK: ffff

Initialize PATTERN TABLE
PT_SET: 16
PT_WAY: 4
SIG_DELTA_BIT: 7
C_SIG_BIT: 4
C_DELTA_BIT: 4

Initialize PREFETCH FILTER
FILTER_SET: 1024

Initialize PERCEPTRON
PERC_ENTRIES: 64
PERC_FEATURES: 9

*** ChampSim Multicore Out-of-Order Simulator ***

Warmup Instructions: 50000000
Simulation Instructions: 50000000
Number of CPUs: 1
LLC sets: 2048
LLC ways: 16
Off-chip DRAM Size: 4096 MB Channels: 1 Width: 64-bit Data Rate: 6400 MT/s
CPU 0 runs ../IPC-traces//server_010.champsimtrace.xz
.xz
NUM_OF_IPS_IN_CRITICAL_IP_TRAINING: 64
NUM_OF_CRITICAL_IP_TRAINING_TABLE_WAYS: 2
NUM_OF_CRITICAL_IP_TRAINING_TABLE_SETS: 32
WOBBLY_CRITICAL_IP_CACHE_SETS: 32
WOBBLY_CRITICAL_IP_CACHE_WAYS: 4
BTB has LRU replacement policy
ITLB has LRU replacement policy
DTLB has LRU replacement policy
STLB has LRU replacement policy
CPU 0 L1I next line prefetcher
L1I has LRU replacement policy
L1D has LRU replacement policy
Initialize SRRIP state for L2C
Initialize DRRIP state for LLC
Heartbeat CPU 0 instructions: 10000001 cycles: 2763687 heartbeat IPC: 3.61836 cumulative IPC: 3.61836 (Simulation time: 0 hr 2 min 51 sec) 
Heartbeat CPU 0 instructions: 20000003 cycles: 5519079 heartbeat IPC: 3.62925 cumulative IPC: 3.62379 (Simulation time: 0 hr 5 min 15 sec) 
Heartbeat CPU 0 instructions: 30000001 cycles: 8273745 heartbeat IPC: 3.6302 cumulative IPC: 3.62593 (Simulation time: 0 hr 7 min 42 sec) 
Heartbeat CPU 0 instructions: 40000000 cycles: 11029411 heartbeat IPC: 3.62889 cumulative IPC: 3.62667 (Simulation time: 0 hr 9 min 57 sec) 
Heartbeat CPU 0 instructions: 50000003 cycles: 13785657 heartbeat IPC: 3.62812 cumulative IPC: 3.62696 (Simulation time: 0 hr 11 min 45 sec) 

Warmup complete CPU 0 instructions: 50000003 cycles: 13785657 (Simulation time: 0 hr 11 min 45 sec) 

Heartbeat CPU 0 instructions: 60000001 cycles: 27940198 heartbeat IPC: 0.706487 cumulative IPC: 0.706487 (Simulation time: 0 hr 14 min 16 sec) 
Heartbeat CPU 0 instructions: 70000000 cycles: 42129646 heartbeat IPC: 0.704749 cumulative IPC: 0.705617 (Simulation time: 0 hr 16 min 33 sec) 
Heartbeat CPU 0 instructions: 80000003 cycles: 56333825 heartbeat IPC: 0.704018 cumulative IPC: 0.705083 (Simulation time: 0 hr 18 min 53 sec) 
Heartbeat CPU 0 instructions: 90000002 cycles: 70307506 heartbeat IPC: 0.715631 cumulative IPC: 0.707691 (Simulation time: 0 hr 21 min 8 sec) 
Heartbeat CPU 0 instructions: 100000000 cycles: 97953566 heartbeat IPC: 0.361715 cumulative IPC: 0.594051 (Simulation time: 0 hr 24 min 5 sec) 
Finished CPU 0 instructions: 50000001 cycles: 84167930 cumulative IPC: 0.594051 (Simulation time: 0 hr 24 min 5 sec) 

ChampSim completed all CPUs

Region of Interest Statistics

CPU 0 cumulative IPC: 0.594051 instructions: 50000001 cycles: 84167930

CPU 0 Average Load ROB stall cycles: 2.81063e+07
CPU 0 Fraction of times ROB stalled by Loads: 47.4121
CPU 0 Percentage of Load stall cycles in Total stall cycles: 2.87851e+08
Issued all: 33974073
Issued LT all: 28191349
rob_not_full_when_issued_lt_all: 20906873
Issued LT one: 22922445
rob_not_full_when_issued_lt_one: 16145369
 Total stall cycles: 70649348
 Total load stall cycles: 203365088908656
CPU 0 NUM of IPS identified critical: 0
CPU 0 Num of Load IPs stalling ROB: 23872
Threshold modification factor: 0
Max PIST entries: 64
Min PIST entries: 0
Avg PIST entries: 31.58
Trouble in retire width: 0.934277
MaC = Marked as critical.
lt_50_percent_before_Mac: 0
gt_90_percent_before_Mac: 0
gt_75_percent_before_Mac: 0
gt_50_percent_before_Mac: 0
stall_proportion_bin_same_before_after: 0
stall_proportion_bin_lower_before_after: 0
stall_proportion_bin_upper_before_after: 0
average_stall_proportion_before: -nan
average_stall_proportion_after: -nan
Critical IP stalls, total frequency: 0
Non-critical IP stalls, total frequency: 3430532
Total Freq all stalling IPs: 3430532
stat_90_percent_critical_ip_stalls_freq: 3087497
stat_90_percent_non_critical_ip_stalls_freq: 343035
Critical_IP_ROB_Stalls_Bucket_0: 0
Non-critical_IP_ROB_Stalls_Bucket_0: 1198869
Critical_IP_ROB_Stalls_Bucket_1: 0
Non-critical_IP_ROB_Stalls_Bucket_1: 775434
Critical_IP_ROB_Stalls_Bucket_2: 0
Non-critical_IP_ROB_Stalls_Bucket_2: 370574
Critical_IP_ROB_Stalls_Bucket_3: 0
Non-critical_IP_ROB_Stalls_Bucket_3: 224231
Critical_IP_ROB_Stalls_Bucket_4: 0
Non-critical_IP_ROB_Stalls_Bucket_4: 175192
Critical_IP_ROB_Stalls_Bucket_5: 0
Non-critical_IP_ROB_Stalls_Bucket_5: 165214
Critical_IP_ROB_Stalls_Bucket_6: 0
Non-critical_IP_ROB_Stalls_Bucket_6: 521018
0 => IPs accounting for >50 percent of stalls, 1 => 55, 2 => 60, 3 => 65 and so on till 90.
percent50: 50.1584 num IPs:  68
percent55: 55.0645 num IPs: 98
percent60: 60.0094 num IPs: 146
percent65: 65.0156 num IPs: 252
percent70: 70.0036 num IPs: 440
percent75: 75.007 num IPs: 706
percent80: 80.0042 num IPs: 1139
percent85: 85.0034 num IPs: 1985
percent90: 90.001 num IPs: 3640
Critical_ROB_Stalls_Percent_0_Bucket_0: 390697
Non-critical_ROB_Stalls_Percent_0_Bucket_0: 808172
Critical_ROB_Stalls_Percent_0_Bucket_1: 269162
Non-critical_ROB_Stalls_Percent_0_Bucket_1: 506272
Critical_ROB_Stalls_Percent_0_Bucket_2: 175086
Non-critical_ROB_Stalls_Percent_0_Bucket_2: 195488
Critical_ROB_Stalls_Percent_0_Bucket_3: 144042
Non-critical_ROB_Stalls_Percent_0_Bucket_3: 80189
Critical_ROB_Stalls_Percent_0_Bucket_4: 131719
Non-critical_ROB_Stalls_Percent_0_Bucket_4: 43473
Critical_ROB_Stalls_Percent_0_Bucket_5: 134185
Non-critical_ROB_Stalls_Percent_0_Bucket_5: 31029
Critical_ROB_Stalls_Percent_0_Bucket_6: 475810
Non-critical_ROB_Stalls_Percent_0_Bucket_6: 45208
Critical_ROB_Stalls_Percent_1_Bucket_0: 436500
Non-critical_ROB_Stalls_Percent_1_Bucket_0: 762369
Critical_ROB_Stalls_Percent_1_Bucket_1: 349047
Non-critical_ROB_Stalls_Percent_1_Bucket_1: 426387
Critical_ROB_Stalls_Percent_1_Bucket_2: 201116
Non-critical_ROB_Stalls_Percent_1_Bucket_2: 169458
Critical_ROB_Stalls_Percent_1_Bucket_3: 148974
Non-critical_ROB_Stalls_Percent_1_Bucket_3: 75257
Critical_ROB_Stalls_Percent_1_Bucket_4: 133639
Non-critical_ROB_Stalls_Percent_1_Bucket_4: 41553
Critical_ROB_Stalls_Percent_1_Bucket_5: 140210
Non-critical_ROB_Stalls_Percent_1_Bucket_5: 25004
Critical_ROB_Stalls_Percent_1_Bucket_6: 479519
Non-critical_ROB_Stalls_Percent_1_Bucket_6: 41499
Critical_ROB_Stalls_Percent_2_Bucket_0: 496989
Non-critical_ROB_Stalls_Percent_2_Bucket_0: 701880
Critical_ROB_Stalls_Percent_2_Bucket_1: 409899
Non-critical_ROB_Stalls_Percent_2_Bucket_1: 365535
Critical_ROB_Stalls_Percent_2_Bucket_2: 225342
Non-critical_ROB_Stalls_Percent_2_Bucket_2: 145232
Critical_ROB_Stalls_Percent_2_Bucket_3: 158695
Non-critical_ROB_Stalls_Percent_2_Bucket_3: 65536
Critical_ROB_Stalls_Percent_2_Bucket_4: 138177
Non-critical_ROB_Stalls_Percent_2_Bucket_4: 37015
Critical_ROB_Stalls_Percent_2_Bucket_5: 142338
Non-critical_ROB_Stalls_Percent_2_Bucket_5: 22876
Critical_ROB_Stalls_Percent_2_Bucket_6: 487201
Non-critical_ROB_Stalls_Percent_2_Bucket_6: 33817
Critical_ROB_Stalls_Percent_3_Bucket_0: 566128
Non-critical_ROB_Stalls_Percent_3_Bucket_0: 632741
Critical_ROB_Stalls_Percent_3_Bucket_1: 463246
Non-critical_ROB_Stalls_Percent_3_Bucket_1: 312188
Critical_ROB_Stalls_Percent_3_Bucket_2: 250808
Non-critical_ROB_Stalls_Percent_3_Bucket_2: 119766
Critical_ROB_Stalls_Percent_3_Bucket_3: 167792
Non-critical_ROB_Stalls_Percent_3_Bucket_3: 56439
Critical_ROB_Stalls_Percent_3_Bucket_4: 142972
Non-critical_ROB_Stalls_Percent_3_Bucket_4: 32220
Critical_ROB_Stalls_Percent_3_Bucket_5: 145866
Non-critical_ROB_Stalls_Percent_3_Bucket_5: 19348
Critical_ROB_Stalls_Percent_3_Bucket_6: 493570
Non-critical_ROB_Stalls_Percent_3_Bucket_6: 27448
Critical_ROB_Stalls_Percent_4_Bucket_0: 633542
Non-critical_ROB_Stalls_Percent_4_Bucket_0: 565327
Critical_ROB_Stalls_Percent_4_Bucket_1: 518403
Non-critical_ROB_Stalls_Percent_4_Bucket_1: 257031
Critical_ROB_Stalls_Percent_4_Bucket_2: 274530
Non-critical_ROB_Stalls_Percent_4_Bucket_2: 96044
Critical_ROB_Stalls_Percent_4_Bucket_3: 178223
Non-critical_ROB_Stalls_Percent_4_Bucket_3: 46008
Critical_ROB_Stalls_Percent_4_Bucket_4: 148566
Non-critical_ROB_Stalls_Percent_4_Bucket_4: 26626
Critical_ROB_Stalls_Percent_4_Bucket_5: 149984
Non-critical_ROB_Stalls_Percent_4_Bucket_5: 15230
Critical_ROB_Stalls_Percent_4_Bucket_6: 498245
Non-critical_ROB_Stalls_Percent_4_Bucket_6: 22773
Critical_ROB_Stalls_Percent_5_Bucket_0: 710353
Non-critical_ROB_Stalls_Percent_5_Bucket_0: 488516
Critical_ROB_Stalls_Percent_5_Bucket_1: 580507
Non-critical_ROB_Stalls_Percent_5_Bucket_1: 194927
Critical_ROB_Stalls_Percent_5_Bucket_2: 290022
Non-critical_ROB_Stalls_Percent_5_Bucket_2: 80552
Critical_ROB_Stalls_Percent_5_Bucket_3: 183939
Non-critical_ROB_Stalls_Percent_5_Bucket_3: 40292
Critical_ROB_Stalls_Percent_5_Bucket_4: 153028
Non-critical_ROB_Stalls_Percent_5_Bucket_4: 22164
Critical_ROB_Stalls_Percent_5_Bucket_5: 153394
Non-critical_ROB_Stalls_Percent_5_Bucket_5: 11820
Critical_ROB_Stalls_Percent_5_Bucket_6: 501893
Non-critical_ROB_Stalls_Percent_5_Bucket_6: 19125
Critical_ROB_Stalls_Percent_6_Bucket_0: 807546
Non-critical_ROB_Stalls_Percent_6_Bucket_0: 391323
Critical_ROB_Stalls_Percent_6_Bucket_1: 625746
Non-critical_ROB_Stalls_Percent_6_Bucket_1: 149688
Critical_ROB_Stalls_Percent_6_Bucket_2: 304442
Non-critical_ROB_Stalls_Percent_6_Bucket_2: 66132
Critical_ROB_Stalls_Percent_6_Bucket_3: 190574
Non-critical_ROB_Stalls_Percent_6_Bucket_3: 33657
Critical_ROB_Stalls_Percent_6_Bucket_4: 156544
Non-critical_ROB_Stalls_Percent_6_Bucket_4: 18648
Critical_ROB_Stalls_Percent_6_Bucket_5: 155525
Non-critical_ROB_Stalls_Percent_6_Bucket_5: 9689
Critical_ROB_Stalls_Percent_6_Bucket_6: 504187
Non-critical_ROB_Stalls_Percent_6_Bucket_6: 16831
Critical_ROB_Stalls_Percent_7_Bucket_0: 896368
Non-critical_ROB_Stalls_Percent_7_Bucket_0: 302501
Critical_ROB_Stalls_Percent_7_Bucket_1: 670244
Non-critical_ROB_Stalls_Percent_7_Bucket_1: 105190
Critical_ROB_Stalls_Percent_7_Bucket_2: 322816
Non-critical_ROB_Stalls_Percent_7_Bucket_2: 47758
Critical_ROB_Stalls_Percent_7_Bucket_3: 199192
Non-critical_ROB_Stalls_Percent_7_Bucket_3: 25039
Critical_ROB_Stalls_Percent_7_Bucket_4: 161547
Non-critical_ROB_Stalls_Percent_7_Bucket_4: 13645
Critical_ROB_Stalls_Percent_7_Bucket_5: 158386
Non-critical_ROB_Stalls_Percent_7_Bucket_5: 6828
Critical_ROB_Stalls_Percent_7_Bucket_6: 507509
Non-critical_ROB_Stalls_Percent_7_Bucket_6: 13509
Critical_ROB_Stalls_Percent_8_Bucket_0: 991025
Non-critical_ROB_Stalls_Percent_8_Bucket_0: 207844
Critical_ROB_Stalls_Percent_8_Bucket_1: 710283
Non-critical_ROB_Stalls_Percent_8_Bucket_1: 65151
Critical_ROB_Stalls_Percent_8_Bucket_2: 338867
Non-critical_ROB_Stalls_Percent_8_Bucket_2: 31707
Critical_ROB_Stalls_Percent_8_Bucket_3: 207136
Non-critical_ROB_Stalls_Percent_8_Bucket_3: 17095
Critical_ROB_Stalls_Percent_8_Bucket_4: 166895
Non-critical_ROB_Stalls_Percent_8_Bucket_4: 8297
Critical_ROB_Stalls_Percent_8_Bucket_5: 160929
Non-critical_ROB_Stalls_Percent_8_Bucket_5: 4285
Critical_ROB_Stalls_Percent_8_Bucket_6: 512362
Non-critical_ROB_Stalls_Percent_8_Bucket_6: 8656
Average ROB occupancy Load Stall Begin: 118.626
Average ROB occupancy Load Stall End: 127.677
Min ROB occupancy Load Stall Begin: 1
Max ROB occupancy Load Stall Begin: 352
Min ROB occupancy Load Stall End: 1
Max ROB occupancy Load Stall End: 352
Average ROB occupancy Critical Load Stall Begin: -nan
Average ROB occupancy Critical Load Stall End: -nan
Min ROB occupancy Critical Load Stall Begin: 400
Max ROB occupancy Critical Load Stall Begin: 0
Min ROB occupancy Critical Load Stall End: 400
Max ROB occupancy Critical Load Stall End: 0
 ROB Load Stall Begin Bucket Count 0: 1487033
 ROB Load Stall End Bucket Count 0: 1198869
 ROB Critical Load Stall Begin Bucket Count 0: 0
 ROB Critical Load Stall End Bucket Count 0: 0
 ROB Load Stall Begin Bucket Count 1: 601191
 ROB Load Stall End Bucket Count 1: 775434
 ROB Critical Load Stall Begin Bucket Count 1: 0
 ROB Critical Load Stall End Bucket Count 1: 0
 ROB Load Stall Begin Bucket Count 2: 311710
 ROB Load Stall End Bucket Count 2: 370574
 ROB Critical Load Stall Begin Bucket Count 2: 0
 ROB Critical Load Stall End Bucket Count 2: 0
 ROB Load Stall Begin Bucket Count 3: 197369
 ROB Load Stall End Bucket Count 3: 224231
 ROB Critical Load Stall Begin Bucket Count 3: 0
 ROB Critical Load Stall End Bucket Count 3: 0
 ROB Load Stall Begin Bucket Count 4: 167825
 ROB Load Stall End Bucket Count 4: 175192
 ROB Critical Load Stall Begin Bucket Count 4: 0
 ROB Critical Load Stall End Bucket Count 4: 0
 ROB Load Stall Begin Bucket Count 5: 157992
 ROB Load Stall End Bucket Count 5: 165214
 ROB Critical Load Stall Begin Bucket Count 5: 0
 ROB Critical Load Stall End Bucket Count 5: 0
 ROB Load Stall Begin Bucket Count 6: 507412
 ROB Load Stall End Bucket Count 6: 521018
 ROB Critical Load Stall Begin Bucket Count 6: 0
 ROB Critical Load Stall End Bucket Count 6: 0
PIST Tag Read Accesses: 2267676
PIST Read Accesses: 1133838
PIST Tag Write Accesses: 2267676
PIST Write Accesses: 1133838
Criticality detector called times: 2327478
Max global_stall_cycles_count: 3202733
Threshold Modified: 0 times, factor: 0
Sturdy critical IP cache stats: 
 Unused entries: 0
CIC Tag Read Accesses: 0
CIC Read Accesses: 0
CIC Tag Write Accesses: 0
CIC Write Accesses: 0
Wobbly critical IP cache stats: 
 Unused entries: 105
CIC Tag Read Accesses: 143151917
CIC Read Accesses: 0
CIC Tag Write Accesses: 62776
CIC Write Accesses: 0
ITLB TOTAL     ACCESS:    9528458  HIT:    9310102  MISS:     218356  HIT %:    97.7084  MISS %:    2.29162   MPKI: 4.36712
ITLB LOAD TRANSLATION ACCESS:    8394324  HIT:    8333302  MISS:      61022  HIT %:    99.2731  MISS %:   0.726944   MPKI: 1.22044
ITLB TRANSLATION FROM L1D PREFETCHER ACCESS:    1134134  HIT:     976800  MISS:     157334  HIT %:    86.1274  MISS %:    13.8726   MPKI: 3.14668
ITLB PREFETCH  REQUESTED:          0  ISSUED:          0  USEFUL:     127851  USELESS:      29475
ITLB USEFUL LOAD PREFETCHES:     127851 PREFETCH ISSUED TO LOWER LEVEL:          0  ACCURACY: inf
ITLB TIMELY PREFETCHES:     127851 LATE PREFETCHES: 921 DROPPED PREFETCHES: 12597
ITLB PREFETCHES SAME FILL-ORIGIN LEVEL: 0 DIFFERENT FILL-ORIGIN LEVEL: 0
ITLB AVERAGE MISS LATENCY: 194585 cycles
ITLB RQ	ACCESS:   12933901	FORWARD:          0	MERGED:    3363945	TO_CACHE:    9569956

DTLB TOTAL     ACCESS:   10008105  HIT:    8689775  MISS:    1318330  HIT %:    86.8274  MISS %:    13.1726   MPKI: 26.3666
DTLB LOAD TRANSLATION ACCESS:   10008105  HIT:    8689775  MISS:    1318330  HIT %:    86.8274  MISS %:    13.1726   MPKI: 26.3666
DTLB PREFETCH  REQUESTED:          0  ISSUED:          0  USEFUL:          0  USELESS:          0
DTLB USEFUL LOAD PREFETCHES:          0 PREFETCH ISSUED TO LOWER LEVEL:          0  ACCURACY: -nan
DTLB TIMELY PREFETCHES:          0 LATE PREFETCHES: 0 DROPPED PREFETCHES: 0
DTLB PREFETCHES SAME FILL-ORIGIN LEVEL: 0 DIFFERENT FILL-ORIGIN LEVEL: 0
DTLB AVERAGE MISS LATENCY: 11.6987 cycles
DTLB RQ	ACCESS:   13006041	FORWARD:          0	MERGED:    2958596	TO_CACHE:   10047445

STLB TOTAL     ACCESS:    1536684  HIT:    1429054  MISS:     107630  HIT %:     92.996  MISS %:    7.00404   MPKI: 2.1526
STLB LOAD TRANSLATION ACCESS:    1378431  HIT:    1296605  MISS:      81826  HIT %:    94.0638  MISS %:    5.93617   MPKI: 1.63652
STLB TRANSLATION FROM L1D PREFETCHER ACCESS:     158253  HIT:     132449  MISS:      25804  HIT %:    83.6945  MISS %:    16.3055   MPKI: 0.51608
STLB PREFETCH  REQUESTED:          0  ISSUED:          0  USEFUL:      15247  USELESS:      10532
STLB USEFUL LOAD PREFETCHES:      15247 PREFETCH ISSUED TO LOWER LEVEL:          0  ACCURACY: inf
STLB TIMELY PREFETCHES:      15247 LATE PREFETCHES: 0 DROPPED PREFETCHES: 12597
STLB PREFETCHES SAME FILL-ORIGIN LEVEL: 0 DIFFERENT FILL-ORIGIN LEVEL: 0
STLB AVERAGE MISS LATENCY: 46.9988 cycles
STLB RQ	ACCESS:    1549282	FORWARD:          0	MERGED:          2	TO_CACHE:    1549280

STLB Hit, L1D data hit: 0
STLB Hit, L2C data hit: 0
STLB Hit, LLC data hit: 0
STLB Hit, LLC data miss: 0
STLB STLB hints to L2: 0
L1D TOTAL     ACCESS:   12855951  HIT:   11195971  MISS:    1659980  HIT %:    87.0878  MISS %:    12.9122   MPKI: 33.1996
L1D LOAD      ACCESS:    8111597  HIT:    6544399  MISS:    1567198  HIT %:    80.6795  MISS %:    19.3205   MPKI: 31.344
L1D RFO       ACCESS:    4744354  HIT:    4651572  MISS:      92782  HIT %:    98.0444  MISS %:    1.95563   MPKI: 1.85564
L1D PREFETCH  REQUESTED:          0  ISSUED:          0  USEFUL:          0  USELESS:          0
L1D USEFUL LOAD PREFETCHES:          0 PREFETCH ISSUED TO LOWER LEVEL:          0  ACCURACY: -nan
L1D TIMELY PREFETCHES:          0 LATE PREFETCHES: 0 DROPPED PREFETCHES: 0
L1D PREFETCHES SAME FILL-ORIGIN LEVEL: 0 DIFFERENT FILL-ORIGIN LEVEL: 0
L1D AVERAGE MISS LATENCY: 26.839 cycles
L1D RQ	ACCESS:   11600498	FORWARD:          0	MERGED:    3372532	TO_CACHE:    8147927
L1D WQ	ACCESS:    4965307	FORWARD:      80039	MERGED:     107193	TO_CACHE:    4858114

L1D UNIQUE REGIONS ACCESSED: 0
L1D REGIONS CONFLICTS: 0
L1D Cross Page Prefetch Requests: 0
L1D Same Page Prefetch Requests: 0
L1D ROI Sum of L1D PQ occupancy: 0
L1D PREFETCHES PUSHED FROM L2C: 0
L1I TOTAL     ACCESS:   12773837  HIT:   10958839  MISS:    1814998  HIT %:    85.7913  MISS %:    14.2087   MPKI: 36.3
L1I LOAD      ACCESS:   10144352  HIT:    9922273  MISS:     222079  HIT %:    97.8108  MISS %:    2.18919   MPKI: 4.44158
L1I PREFETCH  ACCESS:    2629485  HIT:    1036566  MISS:    1592919  HIT %:    39.4209  MISS %:    60.5791   MPKI: 31.8584
L1I PREFETCH  REQUESTED:    2867395  ISSUED:    2857955  USEFUL:    1049635  USELESS:     543249
L1I USEFUL LOAD PREFETCHES:    1049635 PREFETCH ISSUED TO LOWER LEVEL:    1622716  ACCURACY: 64.6838
L1I TIMELY PREFETCHES:    1049635 LATE PREFETCHES: 29798 DROPPED PREFETCHES: 41613
L1I PREFETCHES SAME FILL-ORIGIN LEVEL: 1622716 DIFFERENT FILL-ORIGIN LEVEL: 0
L1I AVERAGE MISS LATENCY: 744487 cycles
L1I RQ	ACCESS:   14600701	FORWARD:          0	MERGED:    4431984	TO_CACHE:   10168717
L1I PQ	ACCESS:    2857955	FORWARD:          0	MERGED:      92771	TO_CACHE:    2765184

BTB TOTAL     ACCESS:    5599983  HIT:    4872064  MISS:     727919  HIT %:    87.0014  MISS %:    12.9986   MPKI: 14.5584
BTB BRANCH_DIRECT_JUMP	ACCESS:     449946  HIT:     393873  MISS:      56073
BTB BRANCH_INDIRECT	ACCESS:     140210  HIT:     110632  MISS:      29578
BTB BRANCH_CONDITIONAL	ACCESS:    3238718  HIT:    3009563  MISS:     229155
BTB BRANCH_DIRECT_CALL	ACCESS:     701578  HIT:     595974  MISS:     105604
BTB BRANCH_INDIRECT_CALL	ACCESS:     168971  HIT:     157981  MISS:      10990
BTB BRANCH_RETURN	ACCESS:     900560  HIT:     604041  MISS:     296519
BTB BRANCH_OTHER ACCESS:          0  HIT:          0  MISS:          0

L2C TOTAL     ACCESS:    4611522  HIT:    3471178  MISS:    1140344  HIT %:    75.2719  MISS %:    24.7281   MPKI: 22.8069
L2C LOAD      ACCESS:    1759457  HIT:    1387902  MISS:     371555  HIT %:    78.8824  MISS %:    21.1176   MPKI: 7.4311
L2C DATA LOAD MPKI: 5.84512
L2C INSTRUCTION LOAD MPKI: 1.58598
L2C RFO       ACCESS:      92780  HIT:      45933  MISS:      46847  HIT %:    49.5074  MISS %:    50.4926   MPKI: 0.93694
L2C PREFETCH  ACCESS:    2360769  HIT:    1719489  MISS:     641280  HIT %:     72.836  MISS %:     27.164   MPKI: 12.8256
L2C DATA PREFETCH MPKI: 1.4955
L2C INSTRUCTION PREFETCH MPKI: 11.3301
L2C WRITEBACK ACCESS:     239251  HIT:     216518  MISS:      22733  HIT %:    90.4983  MISS %:    9.50174   MPKI: 0.45466
L2C LOAD TRANSLATION ACCESS:     108206  HIT:      60594  MISS:      47612  HIT %:    55.9987  MISS %:    44.0013   MPKI: 0.95224
L2C TRANSLATION FROM L1D PREFETCHER ACCESS:      51059  HIT:      40742  MISS:      10317  HIT %:     79.794  MISS %:     20.206   MPKI: 0.20634
L2C PREFETCH  REQUESTED:     932886  ISSUED:     932886  USEFUL:      21495  USELESS:     630676
L2C USEFUL LOAD PREFETCHES:      21495 PREFETCH ISSUED TO LOWER LEVEL:     647401  ACCURACY: 3.3202
L2C TIMELY PREFETCHES:      21495 LATE PREFETCHES: 114 DROPPED PREFETCHES: 0
L2C PREFETCHES SAME FILL-ORIGIN LEVEL: 81307 DIFFERENT FILL-ORIGIN LEVEL: 6007
L2C AVERAGE MISS LATENCY: 39.4863 cycles
L2C RQ	ACCESS:    2011526	FORWARD:          0	MERGED:          0	TO_CACHE:    2011502
L2C WQ	ACCESS:     239251	FORWARD:         24	MERGED:          0	TO_CACHE:     239251
L2C PQ	ACCESS:    2555602	FORWARD:          0	MERGED:     181808	TO_CACHE:    2373794

L2C Instructions Evicting Data 246737
L2C Translations Evicting Data 22023
L2C Data Evicting Data 157488
L2C Instructions Evicting Instructions 366542
L2C Translations Evicting Instructions 33009
L2C Data Evicting Instructions 234798
L2C Instructions Evicting Translations 32525
L2C Translations Evicting Translations 2897
L2C Data Evicting Translations 21592
L2C Dense regions hint from L2: 0
PSCL5 TOTAL     ACCESS:     120226  HIT:     120226  MISS:          0  HIT %:        100  MISS %:          0   MPKI: 0
PSCL5 LOAD TRANSLATION ACCESS:      81825  HIT:      81825  MISS:          0  HIT %:        100  MISS %:          0   MPKI: 0
PSCL5 TRANSLATION FROM L1D PREFETCHER ACCESS:      38401  HIT:      38401  MISS:          0  HIT %:        100  MISS %:          0   MPKI: 0
PSCL5 PREFETCH  REQUESTED:          0  ISSUED:          0  USEFUL:          0  USELESS:          0
PSCL5 USEFUL LOAD PREFETCHES:          0 PREFETCH ISSUED TO LOWER LEVEL:          0  ACCURACY: -nan
PSCL5 TIMELY PREFETCHES:          0 LATE PREFETCHES: 0 DROPPED PREFETCHES: 0
PSCL5 PREFETCHES SAME FILL-ORIGIN LEVEL: 0 DIFFERENT FILL-ORIGIN LEVEL: 0

PSCL4 TOTAL     ACCESS:     108931  HIT:     108636  MISS:        295  HIT %:    99.7292  MISS %:   0.270814   MPKI: 0.0059
PSCL4 LOAD TRANSLATION ACCESS:      74089  HIT:      73794  MISS:        295  HIT %:    99.6018  MISS %:    0.39817   MPKI: 0.0059
PSCL4 TRANSLATION FROM L1D PREFETCHER ACCESS:      34842  HIT:      34842  MISS:          0  HIT %:        100  MISS %:          0   MPKI: 0
PSCL4 PREFETCH  REQUESTED:          0  ISSUED:          0  USEFUL:          0  USELESS:          0
PSCL4 USEFUL LOAD PREFETCHES:          0 PREFETCH ISSUED TO LOWER LEVEL:          0  ACCURACY: -nan
PSCL4 TIMELY PREFETCHES:          0 LATE PREFETCHES: 0 DROPPED PREFETCHES: 0
PSCL4 PREFETCHES SAME FILL-ORIGIN LEVEL: 0 DIFFERENT FILL-ORIGIN LEVEL: 0

PSCL3 TOTAL     ACCESS:     117664  HIT:     116807  MISS:        857  HIT %:    99.2717  MISS %:   0.728345   MPKI: 0.01714
PSCL3 LOAD TRANSLATION ACCESS:      81325  HIT:      80468  MISS:        857  HIT %:    98.9462  MISS %:     1.0538   MPKI: 0.01714
PSCL3 TRANSLATION FROM L1D PREFETCHER ACCESS:      36339  HIT:      36339  MISS:          0  HIT %:        100  MISS %:          0   MPKI: 0
PSCL3 PREFETCH  REQUESTED:          0  ISSUED:          0  USEFUL:          0  USELESS:          0
PSCL3 USEFUL LOAD PREFETCHES:          0 PREFETCH ISSUED TO LOWER LEVEL:          0  ACCURACY: -nan
PSCL3 TIMELY PREFETCHES:          0 LATE PREFETCHES: 0 DROPPED PREFETCHES: 0
PSCL3 PREFETCHES SAME FILL-ORIGIN LEVEL: 0 DIFFERENT FILL-ORIGIN LEVEL: 0

PSCL2 TOTAL     ACCESS:     112033  HIT:      83270  MISS:      28763  HIT %:    74.3263  MISS %:    25.6737   MPKI: 0.57526
PSCL2 LOAD TRANSLATION ACCESS:      85136  HIT:      56373  MISS:      28763  HIT %:    66.2152  MISS %:    33.7848   MPKI: 0.57526
PSCL2 TRANSLATION FROM L1D PREFETCHER ACCESS:      26897  HIT:      26897  MISS:          0  HIT %:        100  MISS %:          0   MPKI: 0
PSCL2 PREFETCH  REQUESTED:          0  ISSUED:          0  USEFUL:          0  USELESS:          0
PSCL2 USEFUL LOAD PREFETCHES:          0 PREFETCH ISSUED TO LOWER LEVEL:          0  ACCURACY: -nan
PSCL2 TIMELY PREFETCHES:          0 LATE PREFETCHES: 0 DROPPED PREFETCHES: 0
PSCL2 PREFETCHES SAME FILL-ORIGIN LEVEL: 0 DIFFERENT FILL-ORIGIN LEVEL: 0

LLC TOTAL     ACCESS:    1246460  HIT:    1174738  MISS:      71722  HIT %:    94.2459  MISS %:    5.75406   MPKI: 1.43444
LLC LOAD      ACCESS:     371438  HIT:     323009  MISS:      48429  HIT %:    86.9618  MISS %:    13.0382   MPKI: 0.96858
LLC RFO       ACCESS:      46847  HIT:      35594  MISS:      11253  HIT %:    75.9793  MISS %:    24.0207   MPKI: 0.22506
LLC PREFETCH  ACCESS:     646863  HIT:     636549  MISS:      10314  HIT %:    98.4055  MISS %:    1.59446   MPKI: 0.20628
LLC WRITEBACK ACCESS:     123383  HIT:     122785  MISS:        598  HIT %:    99.5153  MISS %:    0.48467   MPKI: 0.01196
LLC LOAD TRANSLATION ACCESS:      47612  HIT:      46517  MISS:       1095  HIT %:    97.7002  MISS %:    2.29984   MPKI: 0.0219
LLC TRANSLATION FROM L1D PREFETCHER ACCESS:      10317  HIT:      10284  MISS:         33  HIT %:    99.6801  MISS %:    0.31986   MPKI: 0.00066
LLC PREFETCH  REQUESTED:          0  ISSUED:          0  USEFUL:        387  USELESS:       8617
LLC USEFUL LOAD PREFETCHES:        387 PREFETCH ISSUED TO LOWER LEVEL:      10315  ACCURACY: 3.75182
LLC TIMELY PREFETCHES:        387 LATE PREFETCHES: 1 DROPPED PREFETCHES: 0
LLC PREFETCHES SAME FILL-ORIGIN LEVEL: 620 DIFFERENT FILL-ORIGIN LEVEL: 0
LLC AVERAGE MISS LATENCY: 161.061 cycles
LLC RQ	ACCESS:     476217	FORWARD:          0	MERGED:          0	TO_CACHE:     476214
LLC WQ	ACCESS:     123383	FORWARD:          3	MERGED:          0	TO_CACHE:     123383
LLC PQ	ACCESS:     647401	FORWARD:          0	MERGED:        528	TO_CACHE:     646873

LLC Dense regions hint to LLC: 0

RAW hits: 1007719
Loads Generated: 12608216
Loads sent to L1D: 11600498
Stores Generated: 4965302
Stores sent to L1D: 4965307
Major fault: 0 Minor fault: 5909
Allocated PAGES: 5909
I-Shadow cache 408 bytes
Touched + WorthPF tables 6144 bytes 
MMA filter 174 bytes 
FNL filter 272 bytes 
TOTAL PREFETCHER STORAGE SIZE: 25174 bytes
CPU 0 L1I next line prefetcher final stats
------------------
Depth Distribution
------------------
depth 0: 13804
depth 1: 174541
depth 2: 995868
depth 3: 564694
depth 4: 2888
depth 5: 0
depth 6: 0
depth 7: 0
depth 8: 0
depth 9: 0
depth 10: 0
depth 11: 0
depth 12: 0
depth 13: 0
depth 14: 0
depth 15: 0
depth 16: 0
depth 17: 0
depth 18: 0
depth 19: 0
depth 20: 0
depth 21: 0
depth 22: 0
depth 23: 0
depth 24: 0
depth 25: 0
depth 26: 0
depth 27: 0
depth 28: 0
depth 29: 0
Total: 1751795
------------------
ST read accesses: 878797
ST write accesses: 486287
PT read accesses: 22430327
PT write accesses: 932357
FILTER read accesses: 7610286
FILTER write accesses: 3609749
GHR read accesses: 11227980
GHR write accesses: 1361652
PERC read accesses: 163439217
PERC write accesses: 6257831
GHR counter read accesses: 2730168
GHR counter write accesses: 2728344
GHR ip read accesses: 7084692
GHR ip write accesses: 5460336
ST tag read accesses: 49009342
ST tag write accesses: 8974546

DRAM Statistics
 CHANNEL 0
 RQ ROW_BUFFER_HIT:      10641  ROW_BUFFER_MISS:      60483
 DBUS_CONGESTED:         28
 WQ ROW_BUFFER_HIT:       9571  ROW_BUFFER_MISS:      41963  FULL:          0

 AVG_CONGESTED_CYCLE: 4
 All warmup complete: 2
Channel 0 Bank busy for read cycles: 0
Channel 0 Bank busy for write cycles: 0
Channel 0
Rank 0
0banks busy for read cycles: 71736055
0banks busy for write cycles: 24312
1banks busy for read cycles: 5597324
1banks busy for write cycles: 3300117
2banks busy for read cycles: 1198855
2banks busy for write cycles: 1015412
3banks busy for read cycles: 246424
3banks busy for write cycles: 333077
4banks busy for read cycles: 80866
4banks busy for write cycles: 158140
5banks busy for read cycles: 39658
5banks busy for write cycles: 97319
6banks busy for read cycles: 26337
6banks busy for write cycles: 72733
7banks busy for read cycles: 14225
7banks busy for write cycles: 81625
8banks busy for read cycles: 11691
8banks busy for write cycles: 133761

CPU 0 Branch Prediction Accuracy: 99.5528% MPKI: 0.89798 Average ROB Occupancy at Mispredict: 63.9348
Branch types
NOT_BRANCH: 39958764 79.9175%
BRANCH_DIRECT_JUMP: 449946 0.899892%
BRANCH_INDIRECT: 140210 0.28042%
BRANCH_CONDITIONAL: 7679657 15.3593%
BRANCH_DIRECT_CALL: 701578 1.40316%
BRANCH_INDIRECT_CALL: 168971 0.337942%
BRANCH_RETURN: 900560 1.80112%
BRANCH_OTHER: 0 0%

DRAM PAGES: 1048576
Allocated PAGES: 5909
