
*** ChampSim Multicore Out-of-Order Simulator ***

Warmup Instructions: 50000000
Simulation Instructions: 50000000
Number of CPUs: 1
LLC sets: 2048
LLC ways: 16
Off-chip DRAM Size: 4096 MB Channels: 1 Width: 64-bit Data Rate: 6400 MT/s
CPU 0 runs ../IPC-traces//server_022.champsimtrace.xz
.xz
NUM_OF_IPS_IN_CRITICAL_IP_TRAINING: 64
NUM_OF_CRITICAL_IP_TRAINING_TABLE_WAYS: 2
NUM_OF_CRITICAL_IP_TRAINING_TABLE_SETS: 32
WOBBLY_CRITICAL_IP_CACHE_SETS: 32
WOBBLY_CRITICAL_IP_CACHE_WAYS: 4
BTB has LRU replacement policy
ITLB has LRU replacement policy
DTLB has LRU replacement policy
STLB has LRU replacement policy
CPU 0 L1I next line prefetcher
L1I has LRU replacement policy
IP Table Entries: 64
L1D has LRU replacement policy
Initialize SRRIP state for L2C
Initialize DRRIP state for LLC
Heartbeat CPU 0 instructions: 10000001 cycles: 3143933 heartbeat IPC: 3.18073 cumulative IPC: 3.18073 (Simulation time: 0 hr 5 min 44 sec) 
Heartbeat CPU 0 instructions: 20000000 cycles: 6298395 heartbeat IPC: 3.17011 cumulative IPC: 3.17541 (Simulation time: 0 hr 10 min 28 sec) 
Heartbeat CPU 0 instructions: 30000000 cycles: 9442588 heartbeat IPC: 3.18047 cumulative IPC: 3.1771 (Simulation time: 0 hr 14 min 43 sec) 
Heartbeat CPU 0 instructions: 40000003 cycles: 12598431 heartbeat IPC: 3.16873 cumulative IPC: 3.175 (Simulation time: 0 hr 18 min 11 sec) 
Heartbeat CPU 0 instructions: 50000003 cycles: 15744510 heartbeat IPC: 3.17856 cumulative IPC: 3.17571 (Simulation time: 0 hr 21 min 31 sec) 

Warmup complete CPU 0 instructions: 50000003 cycles: 15744510 (Simulation time: 0 hr 21 min 31 sec) 

% increase in all ip prefetch 467.024
% increase in all ip prefetch 16.0493
% increase in all ip prefetch 20.7233
% increase in all ip prefetch 14.2354
% increase in all ip prefetch -0.109375
Heartbeat CPU 0 instructions: 60000000 cycles: 34754936 heartbeat IPC: 0.526027 cumulative IPC: 0.526027 (Simulation time: 0 hr 26 min 3 sec) 
Heartbeat CPU 0 instructions: 70000001 cycles: 54014872 heartbeat IPC: 0.519213 cumulative IPC: 0.522598 (Simulation time: 0 hr 30 min 33 sec) 
Heartbeat CPU 0 instructions: 80000000 cycles: 72282300 heartbeat IPC: 0.547422 cumulative IPC: 0.530618 (Simulation time: 0 hr 34 min 29 sec) 
Heartbeat CPU 0 instructions: 90000003 cycles: 90284488 heartbeat IPC: 0.555488 cumulative IPC: 0.536625 (Simulation time: 0 hr 42 min 2 sec) 
Heartbeat CPU 0 instructions: 100000000 cycles: 108228097 heartbeat IPC: 0.557301 cumulative IPC: 0.540636 (Simulation time: 0 hr 48 min 46 sec) 
Finished CPU 0 instructions: 50000001 cycles: 92483588 cumulative IPC: 0.540636 (Simulation time: 0 hr 48 min 46 sec) 

ChampSim completed all CPUs

Region of Interest Statistics

CPU 0 cumulative IPC: 0.540636 instructions: 50000001 cycles: 92483588

CPU 0 Average Load ROB stall cycles: 2.84838e+07
CPU 0 Fraction of times ROB stalled by Loads: 45.4247
CPU 0 Percentage of Load stall cycles in Total stall cycles: 2.71451e+08
Issued all: 49897295
Issued LT all: 44602198
rob_not_full_when_issued_lt_all: 16868924
Issued LT one: 38780311
rob_not_full_when_issued_lt_one: 12831763
 Total stall cycles: 74741961
 Total load stall cycles: 202887431349592
CPU 0 NUM of IPS identified critical: 0
CPU 0 Num of Load IPs stalling ROB: 4802
Threshold modification factor: -4
Max PIST entries: 64
Min PIST entries: 0
Avg PIST entries: 32
Trouble in retire width: 0.799024
MaC = Marked as critical.
lt_50_percent_before_Mac: 0
gt_90_percent_before_Mac: 0
gt_75_percent_before_Mac: 0
gt_50_percent_before_Mac: 0
stall_proportion_bin_same_before_after: 0
stall_proportion_bin_lower_before_after: 0
stall_proportion_bin_upper_before_after: 0
average_stall_proportion_before: -nan
average_stall_proportion_after: -nan
Critical IP stalls, total frequency: 0
Non-critical IP stalls, total frequency: 3235560
Total Freq all stalling IPs: 3235560
stat_90_percent_critical_ip_stalls_freq: 2913144
stat_90_percent_non_critical_ip_stalls_freq: 322416
Critical_IP_ROB_Stalls_Bucket_0: 0
Non-critical_IP_ROB_Stalls_Bucket_0: 503810
Critical_IP_ROB_Stalls_Bucket_1: 0
Non-critical_IP_ROB_Stalls_Bucket_1: 617446
Critical_IP_ROB_Stalls_Bucket_2: 0
Non-critical_IP_ROB_Stalls_Bucket_2: 421270
Critical_IP_ROB_Stalls_Bucket_3: 0
Non-critical_IP_ROB_Stalls_Bucket_3: 262183
Critical_IP_ROB_Stalls_Bucket_4: 0
Non-critical_IP_ROB_Stalls_Bucket_4: 169153
Critical_IP_ROB_Stalls_Bucket_5: 0
Non-critical_IP_ROB_Stalls_Bucket_5: 151965
Critical_IP_ROB_Stalls_Bucket_6: 0
Non-critical_IP_ROB_Stalls_Bucket_6: 1109733
0 => IPs accounting for >50 percent of stalls, 1 => 55, 2 => 60, 3 => 65 and so on till 90.
percent50: 50.3231 num IPs:  12
percent55: 55.1283 num IPs: 30
percent60: 60.0886 num IPs: 61
percent65: 65.0685 num IPs: 107
percent70: 70.0019 num IPs: 173
percent75: 75.0455 num IPs: 241
percent80: 80.0096 num IPs: 310
percent85: 85.0077 num IPs: 387
percent90: 90.0353 num IPs: 488
Critical_ROB_Stalls_Percent_0_Bucket_0: 53196
Non-critical_ROB_Stalls_Percent_0_Bucket_0: 450614
Critical_ROB_Stalls_Percent_0_Bucket_1: 114170
Non-critical_ROB_Stalls_Percent_0_Bucket_1: 503276
Critical_ROB_Stalls_Percent_0_Bucket_2: 118783
Non-critical_ROB_Stalls_Percent_0_Bucket_2: 302487
Critical_ROB_Stalls_Percent_0_Bucket_3: 134011
Non-critical_ROB_Stalls_Percent_0_Bucket_3: 128172
Critical_ROB_Stalls_Percent_0_Bucket_4: 111958
Non-critical_ROB_Stalls_Percent_0_Bucket_4: 57195
Critical_ROB_Stalls_Percent_0_Bucket_5: 105264
Non-critical_ROB_Stalls_Percent_0_Bucket_5: 46701
Critical_ROB_Stalls_Percent_0_Bucket_6: 990853
Non-critical_ROB_Stalls_Percent_0_Bucket_6: 118880
Critical_ROB_Stalls_Percent_1_Bucket_0: 123810
Non-critical_ROB_Stalls_Percent_1_Bucket_0: 380000
Critical_ROB_Stalls_Percent_1_Bucket_1: 156729
Non-critical_ROB_Stalls_Percent_1_Bucket_1: 460717
Critical_ROB_Stalls_Percent_1_Bucket_2: 137908
Non-critical_ROB_Stalls_Percent_1_Bucket_2: 283362
Critical_ROB_Stalls_Percent_1_Bucket_3: 141733
Non-critical_ROB_Stalls_Percent_1_Bucket_3: 120450
Critical_ROB_Stalls_Percent_1_Bucket_4: 115744
Non-critical_ROB_Stalls_Percent_1_Bucket_4: 53409
Critical_ROB_Stalls_Percent_1_Bucket_5: 109895
Non-critical_ROB_Stalls_Percent_1_Bucket_5: 42070
Critical_ROB_Stalls_Percent_1_Bucket_6: 997891
Non-critical_ROB_Stalls_Percent_1_Bucket_6: 111842
Critical_ROB_Stalls_Percent_2_Bucket_0: 173992
Non-critical_ROB_Stalls_Percent_2_Bucket_0: 329818
Critical_ROB_Stalls_Percent_2_Bucket_1: 194402
Non-critical_ROB_Stalls_Percent_2_Bucket_1: 423044
Critical_ROB_Stalls_Percent_2_Bucket_2: 167342
Non-critical_ROB_Stalls_Percent_2_Bucket_2: 253928
Critical_ROB_Stalls_Percent_2_Bucket_3: 147790
Non-critical_ROB_Stalls_Percent_2_Bucket_3: 114393
Critical_ROB_Stalls_Percent_2_Bucket_4: 123147
Non-critical_ROB_Stalls_Percent_2_Bucket_4: 46006
Critical_ROB_Stalls_Percent_2_Bucket_5: 117170
Non-critical_ROB_Stalls_Percent_2_Bucket_5: 34795
Critical_ROB_Stalls_Percent_2_Bucket_6: 1020358
Non-critical_ROB_Stalls_Percent_2_Bucket_6: 89375
Critical_ROB_Stalls_Percent_3_Bucket_0: 216174
Non-critical_ROB_Stalls_Percent_3_Bucket_0: 287636
Critical_ROB_Stalls_Percent_3_Bucket_1: 238519
Non-critical_ROB_Stalls_Percent_3_Bucket_1: 378927
Critical_ROB_Stalls_Percent_3_Bucket_2: 201086
Non-critical_ROB_Stalls_Percent_3_Bucket_2: 220184
Critical_ROB_Stalls_Percent_3_Bucket_3: 158047
Non-critical_ROB_Stalls_Percent_3_Bucket_3: 104136
Critical_ROB_Stalls_Percent_3_Bucket_4: 126832
Non-critical_ROB_Stalls_Percent_3_Bucket_4: 42321
Critical_ROB_Stalls_Percent_3_Bucket_5: 122915
Non-critical_ROB_Stalls_Percent_3_Bucket_5: 29050
Critical_ROB_Stalls_Percent_3_Bucket_6: 1041757
Non-critical_ROB_Stalls_Percent_3_Bucket_6: 67976
Critical_ROB_Stalls_Percent_4_Bucket_0: 231728
Non-critical_ROB_Stalls_Percent_4_Bucket_0: 272082
Critical_ROB_Stalls_Percent_4_Bucket_1: 297531
Non-critical_ROB_Stalls_Percent_4_Bucket_1: 319915
Critical_ROB_Stalls_Percent_4_Bucket_2: 239456
Non-critical_ROB_Stalls_Percent_4_Bucket_2: 181814
Critical_ROB_Stalls_Percent_4_Bucket_3: 175841
Non-critical_ROB_Stalls_Percent_4_Bucket_3: 86342
Critical_ROB_Stalls_Percent_4_Bucket_4: 140537
Non-critical_ROB_Stalls_Percent_4_Bucket_4: 28616
Critical_ROB_Stalls_Percent_4_Bucket_5: 132467
Non-critical_ROB_Stalls_Percent_4_Bucket_5: 19498
Critical_ROB_Stalls_Percent_4_Bucket_6: 1047392
Non-critical_ROB_Stalls_Percent_4_Bucket_6: 62341
Critical_ROB_Stalls_Percent_5_Bucket_0: 263923
Non-critical_ROB_Stalls_Percent_5_Bucket_0: 239887
Critical_ROB_Stalls_Percent_5_Bucket_1: 355359
Non-critical_ROB_Stalls_Percent_5_Bucket_1: 262087
Critical_ROB_Stalls_Percent_5_Bucket_2: 280210
Non-critical_ROB_Stalls_Percent_5_Bucket_2: 141060
Critical_ROB_Stalls_Percent_5_Bucket_3: 199846
Non-critical_ROB_Stalls_Percent_5_Bucket_3: 62337
Critical_ROB_Stalls_Percent_5_Bucket_4: 146978
Non-critical_ROB_Stalls_Percent_5_Bucket_4: 22175
Critical_ROB_Stalls_Percent_5_Bucket_5: 133032
Non-critical_ROB_Stalls_Percent_5_Bucket_5: 18933
Critical_ROB_Stalls_Percent_5_Bucket_6: 1048793
Non-critical_ROB_Stalls_Percent_5_Bucket_6: 60940
Critical_ROB_Stalls_Percent_6_Bucket_0: 311675
Non-critical_ROB_Stalls_Percent_6_Bucket_0: 192135
Critical_ROB_Stalls_Percent_6_Bucket_1: 419244
Non-critical_ROB_Stalls_Percent_6_Bucket_1: 198202
Critical_ROB_Stalls_Percent_6_Bucket_2: 302846
Non-critical_ROB_Stalls_Percent_6_Bucket_2: 118424
Critical_ROB_Stalls_Percent_6_Bucket_3: 210424
Non-critical_ROB_Stalls_Percent_6_Bucket_3: 51759
Critical_ROB_Stalls_Percent_6_Bucket_4: 150211
Non-critical_ROB_Stalls_Percent_6_Bucket_4: 18942
Critical_ROB_Stalls_Percent_6_Bucket_5: 136854
Non-critical_ROB_Stalls_Percent_6_Bucket_5: 15111
Critical_ROB_Stalls_Percent_6_Bucket_6: 1057502
Non-critical_ROB_Stalls_Percent_6_Bucket_6: 52231
Critical_ROB_Stalls_Percent_7_Bucket_0: 348242
Non-critical_ROB_Stalls_Percent_7_Bucket_0: 155568
Critical_ROB_Stalls_Percent_7_Bucket_1: 463999
Non-critical_ROB_Stalls_Percent_7_Bucket_1: 153447
Critical_ROB_Stalls_Percent_7_Bucket_2: 348097
Non-critical_ROB_Stalls_Percent_7_Bucket_2: 73173
Critical_ROB_Stalls_Percent_7_Bucket_3: 225979
Non-critical_ROB_Stalls_Percent_7_Bucket_3: 36204
Critical_ROB_Stalls_Percent_7_Bucket_4: 156403
Non-critical_ROB_Stalls_Percent_7_Bucket_4: 12750
Critical_ROB_Stalls_Percent_7_Bucket_5: 139301
Non-critical_ROB_Stalls_Percent_7_Bucket_5: 12664
Critical_ROB_Stalls_Percent_7_Bucket_6: 1068453
Non-critical_ROB_Stalls_Percent_7_Bucket_6: 41280
Critical_ROB_Stalls_Percent_8_Bucket_0: 403770
Non-critical_ROB_Stalls_Percent_8_Bucket_0: 100040
Critical_ROB_Stalls_Percent_8_Bucket_1: 518242
Non-critical_ROB_Stalls_Percent_8_Bucket_1: 99204
Critical_ROB_Stalls_Percent_8_Bucket_2: 368120
Non-critical_ROB_Stalls_Percent_8_Bucket_2: 53150
Critical_ROB_Stalls_Percent_8_Bucket_3: 234508
Non-critical_ROB_Stalls_Percent_8_Bucket_3: 27675
Critical_ROB_Stalls_Percent_8_Bucket_4: 158920
Non-critical_ROB_Stalls_Percent_8_Bucket_4: 10233
Critical_ROB_Stalls_Percent_8_Bucket_5: 144589
Non-critical_ROB_Stalls_Percent_8_Bucket_5: 7376
Critical_ROB_Stalls_Percent_8_Bucket_6: 1084995
Non-critical_ROB_Stalls_Percent_8_Bucket_6: 24738
Average ROB occupancy Load Stall Begin: 184.735
Average ROB occupancy Load Stall End: 193.115
Min ROB occupancy Load Stall Begin: 1
Max ROB occupancy Load Stall Begin: 352
Min ROB occupancy Load Stall End: 1
Max ROB occupancy Load Stall End: 352
Average ROB occupancy Critical Load Stall Begin: -nan
Average ROB occupancy Critical Load Stall End: -nan
Min ROB occupancy Critical Load Stall Begin: 400
Max ROB occupancy Critical Load Stall Begin: 0
Min ROB occupancy Critical Load Stall End: 400
Max ROB occupancy Critical Load Stall End: 0
 ROB Load Stall Begin Bucket Count 0: 712420
 ROB Load Stall End Bucket Count 0: 503810
 ROB Critical Load Stall Begin Bucket Count 0: 0
 ROB Critical Load Stall End Bucket Count 0: 0
 ROB Load Stall Begin Bucket Count 1: 536918
 ROB Load Stall End Bucket Count 1: 617446
 ROB Critical Load Stall Begin Bucket Count 1: 0
 ROB Critical Load Stall End Bucket Count 1: 0
 ROB Load Stall Begin Bucket Count 2: 375074
 ROB Load Stall End Bucket Count 2: 421270
 ROB Critical Load Stall Begin Bucket Count 2: 0
 ROB Critical Load Stall End Bucket Count 2: 0
 ROB Load Stall Begin Bucket Count 3: 221269
 ROB Load Stall End Bucket Count 3: 262183
 ROB Critical Load Stall Begin Bucket Count 3: 0
 ROB Critical Load Stall End Bucket Count 3: 0
 ROB Load Stall Begin Bucket Count 4: 155764
 ROB Load Stall End Bucket Count 4: 169153
 ROB Critical Load Stall Begin Bucket Count 4: 0
 ROB Critical Load Stall End Bucket Count 4: 0
 ROB Load Stall Begin Bucket Count 5: 152994
 ROB Load Stall End Bucket Count 5: 151965
 ROB Critical Load Stall Begin Bucket Count 5: 0
 ROB Critical Load Stall End Bucket Count 5: 0
 ROB Load Stall Begin Bucket Count 6: 1081121
 ROB Load Stall End Bucket Count 6: 1109733
 ROB Critical Load Stall Begin Bucket Count 6: 0
 ROB Critical Load Stall End Bucket Count 6: 0
PIST Tag Read Accesses: 3257988
PIST Read Accesses: 1628994
PIST Tag Write Accesses: 3257988
PIST Write Accesses: 1628994
Criticality detector called times: 1691415
Max global_stall_cycles_count: 3883341
Threshold Modified: 4 times, factor: -4
Sturdy critical IP cache stats: 
 Unused entries: 0
CIC Tag Read Accesses: 0
CIC Read Accesses: 0
CIC Tag Write Accesses: 0
CIC Write Accesses: 0
Wobbly critical IP cache stats: 
 Unused entries: 94
CIC Tag Read Accesses: 88144208
CIC Read Accesses: 0
CIC Tag Write Accesses: 1788
CIC Write Accesses: 0
ITLB TOTAL     ACCESS:   10366757  HIT:    9878192  MISS:     488565  HIT %:    95.2872  MISS %:     4.7128   MPKI: 9.7713
ITLB LOAD TRANSLATION ACCESS:    8406983  HIT:    8396385  MISS:      10598  HIT %:    99.8739  MISS %:   0.126062   MPKI: 0.21196
ITLB TRANSLATION FROM L1D PREFETCHER ACCESS:    1959774  HIT:    1481807  MISS:     477967  HIT %:    75.6111  MISS %:    24.3889   MPKI: 9.55934
ITLB PREFETCH  REQUESTED:          0  ISSUED:          0  USEFUL:     425954  USELESS:      52013
ITLB USEFUL LOAD PREFETCHES:     425954 PREFETCH ISSUED TO LOWER LEVEL:          0  ACCURACY: inf
ITLB TIMELY PREFETCHES:     425954 LATE PREFETCHES: 165 DROPPED PREFETCHES: 0
ITLB PREFETCHES SAME FILL-ORIGIN LEVEL: 0 DIFFERENT FILL-ORIGIN LEVEL: 0
ITLB AVERAGE MISS LATENCY: 20412.6 cycles
ITLB RQ	ACCESS:   14991438	FORWARD:          0	MERGED:    4579264	TO_CACHE:   10412174

DTLB TOTAL     ACCESS:   10874821  HIT:   10464547  MISS:     410274  HIT %:    96.2273  MISS %:     3.7727   MPKI: 8.20548
DTLB LOAD TRANSLATION ACCESS:   10874821  HIT:   10464547  MISS:     410274  HIT %:    96.2273  MISS %:     3.7727   MPKI: 8.20548
DTLB PREFETCH  REQUESTED:          0  ISSUED:          0  USEFUL:          0  USELESS:          0
DTLB USEFUL LOAD PREFETCHES:          0 PREFETCH ISSUED TO LOWER LEVEL:          0  ACCURACY: -nan
DTLB TIMELY PREFETCHES:          0 LATE PREFETCHES: 0 DROPPED PREFETCHES: 0
DTLB PREFETCHES SAME FILL-ORIGIN LEVEL: 0 DIFFERENT FILL-ORIGIN LEVEL: 0
DTLB AVERAGE MISS LATENCY: 17.0787 cycles
DTLB RQ	ACCESS:   16215099	FORWARD:          0	MERGED:    5254880	TO_CACHE:   10960219

STLB TOTAL     ACCESS:    1489421  HIT:    1469794  MISS:      19627  HIT %:    98.6822  MISS %:    1.31776   MPKI: 0.39254
STLB LOAD TRANSLATION ACCESS:     420707  HIT:     401456  MISS:      19251  HIT %:    95.4241  MISS %:    4.57587   MPKI: 0.38502
STLB TRANSLATION FROM L1D PREFETCHER ACCESS:    1068714  HIT:    1068338  MISS:        376  HIT %:    99.9648  MISS %:  0.0351825   MPKI: 0.00752
STLB PREFETCH  REQUESTED:          0  ISSUED:          0  USEFUL:        157  USELESS:        219
STLB USEFUL LOAD PREFETCHES:        157 PREFETCH ISSUED TO LOWER LEVEL:          0  ACCURACY: inf
STLB TIMELY PREFETCHES:        157 LATE PREFETCHES: 0 DROPPED PREFETCHES: 0
STLB PREFETCHES SAME FILL-ORIGIN LEVEL: 0 DIFFERENT FILL-ORIGIN LEVEL: 0
STLB AVERAGE MISS LATENCY: 176.398 cycles
STLB RQ	ACCESS:    1524073	FORWARD:          0	MERGED:      34652	TO_CACHE:    1489421

STLB Hit, L1D data hit: 0
STLB Hit, L2C data hit: 0
STLB Hit, LLC data hit: 0
STLB Hit, LLC data miss: 0
STLB STLB hints to L2: 0
L1D TOTAL     ACCESS:   14256172  HIT:   12408875  MISS:    1847297  HIT %:    87.0421  MISS %:    12.9579   MPKI: 36.9459
L1D LOAD      ACCESS:    7385340  HIT:    6832989  MISS:     552351  HIT %:     92.521  MISS %:    7.47902   MPKI: 11.047
L1D RFO       ACCESS:    6304799  HIT:    5309192  MISS:     995607  HIT %:    84.2087  MISS %:    15.7913   MPKI: 19.9121
L1D PREFETCH  ACCESS:     566033  HIT:     266694  MISS:     299339  HIT %:    47.1163  MISS %:    52.8837   MPKI: 5.98678
L1D PREFETCH  REQUESTED:    1250470  ISSUED:    1250470  USEFUL:     272043  USELESS:      27298
L1D USEFUL LOAD PREFETCHES:     272043 PREFETCH ISSUED TO LOWER LEVEL:     355424  ACCURACY: 76.5404
L1D TIMELY PREFETCHES:     272043 LATE PREFETCHES: 56084 DROPPED PREFETCHES: 0
L1D PREFETCHES SAME FILL-ORIGIN LEVEL: 355424 DIFFERENT FILL-ORIGIN LEVEL: 0
L1D AVERAGE MISS LATENCY: 1.80471e+06 cycles
L1D RQ	ACCESS:   11066973	FORWARD:          0	MERGED:    3519138	TO_CACHE:    7423975
L1D WQ	ACCESS:    8887929	FORWARD:     123862	MERGED:      96805	TO_CACHE:    8791124
L1D PQ	ACCESS:     625236	FORWARD:          0	MERGED:          0	TO_CACHE:     625234

L1D UNIQUE REGIONS ACCESSED: 0
L1D REGIONS CONFLICTS: 0
L1D Cross Page Prefetch Requests: 0
L1D Same Page Prefetch Requests: 1304328
L1D ROI Sum of L1D PQ occupancy: 9357817
L1D PREFETCHES PUSHED FROM L2C: 0
L1I TOTAL     ACCESS:   14913389  HIT:   11660776  MISS:    3252613  HIT %:      78.19  MISS %:      21.81   MPKI: 65.0523
L1I LOAD      ACCESS:    9810266  HIT:    9793274  MISS:      16992  HIT %:    99.8268  MISS %:   0.173206   MPKI: 0.33984
L1I PREFETCH  ACCESS:    5103123  HIT:    1867502  MISS:    3235621  HIT %:    36.5953  MISS %:    63.4047   MPKI: 64.7124
L1I PREFETCH  REQUESTED:    5362374  ISSUED:    5353353  USEFUL:    2680284  USELESS:     555343
L1I USEFUL LOAD PREFETCHES:    2680284 PREFETCH ISSUED TO LOWER LEVEL:    3240997  ACCURACY: 82.6994
L1I TIMELY PREFETCHES:    2680284 LATE PREFETCHES: 5301 DROPPED PREFETCHES: 0
L1I PREFETCHES SAME FILL-ORIGIN LEVEL: 3240997 DIFFERENT FILL-ORIGIN LEVEL: 0
L1I AVERAGE MISS LATENCY: 104074 cycles
L1I RQ	ACCESS:   14112827	FORWARD:          0	MERGED:    4298726	TO_CACHE:    9814101
L1I PQ	ACCESS:    5353353	FORWARD:          0	MERGED:     176016	TO_CACHE:    5177337

BTB TOTAL     ACCESS:    5297029  HIT:    5037185  MISS:     259844  HIT %:    95.0945  MISS %:    4.90547   MPKI: 5.19688
BTB BRANCH_DIRECT_JUMP	ACCESS:     445734  HIT:     443706  MISS:       2028
BTB BRANCH_INDIRECT	ACCESS:      48875  HIT:      48765  MISS:        110
BTB BRANCH_CONDITIONAL	ACCESS:    2967687  HIT:    2961527  MISS:       6160
BTB BRANCH_DIRECT_CALL	ACCESS:     758262  HIT:     754131  MISS:       4131
BTB BRANCH_INDIRECT_CALL	ACCESS:     159103  HIT:     129311  MISS:      29792
BTB BRANCH_RETURN	ACCESS:     917368  HIT:     699745  MISS:     217623
BTB BRANCH_OTHER ACCESS:          0  HIT:          0  MISS:          0

L2C TOTAL     ACCESS:    6462597  HIT:    4615806  MISS:    1846791  HIT %:    71.4234  MISS %:    28.5766   MPKI: 36.9358
L2C LOAD      ACCESS:     507948  HIT:     179455  MISS:     328493  HIT %:    35.3294  MISS %:    64.6706   MPKI: 6.56986
L2C DATA LOAD MPKI: 6.4892
L2C INSTRUCTION LOAD MPKI: 0.08066
L2C RFO       ACCESS:     995600  HIT:      41675  MISS:     953925  HIT %:    4.18592  MISS %:    95.8141   MPKI: 19.0785
L2C PREFETCH  ACCESS:    3764918  HIT:    3258844  MISS:     506074  HIT %:    86.5582  MISS %:    13.4418   MPKI: 10.1215
L2C DATA PREFETCH MPKI: 6.96188
L2C INSTRUCTION PREFETCH MPKI: 3.1596
L2C WRITEBACK ACCESS:    1172418  HIT:    1123814  MISS:      48604  HIT %:    95.8544  MISS %:    4.14562   MPKI: 0.97208
L2C LOAD TRANSLATION ACCESS:      21164  HIT:      11899  MISS:       9265  HIT %:    56.2228  MISS %:    43.7772   MPKI: 0.1853
L2C TRANSLATION FROM L1D PREFETCHER ACCESS:        549  HIT:        119  MISS:        430  HIT %:    21.6758  MISS %:    78.3242   MPKI: 0.0086
L2C PREFETCH  REQUESTED:     427385  ISSUED:     427244  USEFUL:      12745  USELESS:     494681
L2C USEFUL LOAD PREFETCHES:      12745 PREFETCH ISSUED TO LOWER LEVEL:     508012  ACCURACY: 2.5088
L2C TIMELY PREFETCHES:      12745 LATE PREFETCHES: 1938 DROPPED PREFETCHES: 0
L2C PREFETCHES SAME FILL-ORIGIN LEVEL: 231861 DIFFERENT FILL-ORIGIN LEVEL: 0
L2C AVERAGE MISS LATENCY: 171.886 cycles
L2C RQ	ACCESS:    1525277	FORWARD:          0	MERGED:          0	TO_CACHE:    1525261
L2C WQ	ACCESS:    1172418	FORWARD:         18	MERGED:          0	TO_CACHE:    1172418
L2C PQ	ACCESS:    4023593	FORWARD:          0	MERGED:      73746	TO_CACHE:    3949845

L2C Instructions Evicting Data 148799
L2C Translations Evicting Data 8815
L2C Data Evicting Data 1473371
L2C Instructions Evicting Instructions 12412
L2C Translations Evicting Instructions 833
L2C Data Evicting Instructions 144450
L2C Instructions Evicting Translations 802
L2C Translations Evicting Translations 47
L2C Data Evicting Translations 8658
L2C Dense regions hint from L2: 0
PSCL5 TOTAL     ACCESS:      19627  HIT:      19627  MISS:          0  HIT %:        100  MISS %:          0   MPKI: 0
PSCL5 LOAD TRANSLATION ACCESS:      19251  HIT:      19251  MISS:          0  HIT %:        100  MISS %:          0   MPKI: 0
PSCL5 TRANSLATION FROM L1D PREFETCHER ACCESS:        376  HIT:        376  MISS:          0  HIT %:        100  MISS %:          0   MPKI: 0
PSCL5 PREFETCH  REQUESTED:          0  ISSUED:          0  USEFUL:          0  USELESS:          0
PSCL5 USEFUL LOAD PREFETCHES:          0 PREFETCH ISSUED TO LOWER LEVEL:          0  ACCURACY: -nan
PSCL5 TIMELY PREFETCHES:          0 LATE PREFETCHES: 0 DROPPED PREFETCHES: 0
PSCL5 PREFETCHES SAME FILL-ORIGIN LEVEL: 0 DIFFERENT FILL-ORIGIN LEVEL: 0

PSCL4 TOTAL     ACCESS:      17522  HIT:      17497  MISS:         25  HIT %:    99.8573  MISS %:   0.142678   MPKI: 0.0005
PSCL4 LOAD TRANSLATION ACCESS:      17156  HIT:      17131  MISS:         25  HIT %:    99.8543  MISS %:   0.145722   MPKI: 0.0005
PSCL4 TRANSLATION FROM L1D PREFETCHER ACCESS:        366  HIT:        366  MISS:          0  HIT %:        100  MISS %:          0   MPKI: 0
PSCL4 PREFETCH  REQUESTED:          0  ISSUED:          0  USEFUL:          0  USELESS:          0
PSCL4 USEFUL LOAD PREFETCHES:          0 PREFETCH ISSUED TO LOWER LEVEL:          0  ACCURACY: -nan
PSCL4 TIMELY PREFETCHES:          0 LATE PREFETCHES: 0 DROPPED PREFETCHES: 0
PSCL4 PREFETCHES SAME FILL-ORIGIN LEVEL: 0 DIFFERENT FILL-ORIGIN LEVEL: 0

PSCL3 TOTAL     ACCESS:      19620  HIT:      19570  MISS:         50  HIT %:    99.7452  MISS %:   0.254842   MPKI: 0.001
PSCL3 LOAD TRANSLATION ACCESS:      19265  HIT:      19215  MISS:         50  HIT %:    99.7405  MISS %:   0.259538   MPKI: 0.001
PSCL3 TRANSLATION FROM L1D PREFETCHER ACCESS:        355  HIT:        355  MISS:          0  HIT %:        100  MISS %:          0   MPKI: 0
PSCL3 PREFETCH  REQUESTED:          0  ISSUED:          0  USEFUL:          0  USELESS:          0
PSCL3 USEFUL LOAD PREFETCHES:          0 PREFETCH ISSUED TO LOWER LEVEL:          0  ACCURACY: -nan
PSCL3 TIMELY PREFETCHES:          0 LATE PREFETCHES: 0 DROPPED PREFETCHES: 0
PSCL3 PREFETCHES SAME FILL-ORIGIN LEVEL: 0 DIFFERENT FILL-ORIGIN LEVEL: 0

PSCL2 TOTAL     ACCESS:      19627  HIT:      17587  MISS:       2040  HIT %:    89.6062  MISS %:    10.3938   MPKI: 0.0408
PSCL2 LOAD TRANSLATION ACCESS:      19396  HIT:      17356  MISS:       2040  HIT %:    89.4824  MISS %:    10.5176   MPKI: 0.0408
PSCL2 TRANSLATION FROM L1D PREFETCHER ACCESS:        231  HIT:        231  MISS:          0  HIT %:        100  MISS %:          0   MPKI: 0
PSCL2 PREFETCH  REQUESTED:          0  ISSUED:          0  USEFUL:          0  USELESS:          0
PSCL2 USEFUL LOAD PREFETCHES:          0 PREFETCH ISSUED TO LOWER LEVEL:          0  ACCURACY: -nan
PSCL2 TIMELY PREFETCHES:          0 LATE PREFETCHES: 0 DROPPED PREFETCHES: 0
PSCL2 PREFETCHES SAME FILL-ORIGIN LEVEL: 0 DIFFERENT FILL-ORIGIN LEVEL: 0

LLC TOTAL     ACCESS:    2889244  HIT:    1416457  MISS:    1472787  HIT %:    49.0252  MISS %:    50.9748   MPKI: 29.4557
LLC LOAD      ACCESS:     326771  HIT:     274716  MISS:      52055  HIT %:    84.0699  MISS %:    15.9301   MPKI: 1.0411
LLC RFO       ACCESS:     953708  HIT:     222932  MISS:     730776  HIT %:    23.3753  MISS %:    76.6247   MPKI: 14.6155
LLC PREFETCH  ACCESS:     508012  HIT:     194465  MISS:     313547  HIT %:    38.2796  MISS %:    61.7204   MPKI: 6.27094
LLC WRITEBACK ACCESS:    1091058  HIT:     721539  MISS:     369519  HIT %:     66.132  MISS %:     33.868   MPKI: 7.39038
LLC LOAD TRANSLATION ACCESS:       9265  HIT:       2653  MISS:       6612  HIT %:    28.6346  MISS %:    71.3654   MPKI: 0.13224
LLC TRANSLATION FROM L1D PREFETCHER ACCESS:        430  HIT:        152  MISS:        278  HIT %:    35.3488  MISS %:    64.6512   MPKI: 0.00556
LLC PREFETCH  REQUESTED:          0  ISSUED:          0  USEFUL:       2718  USELESS:     318876
LLC USEFUL LOAD PREFETCHES:       2718 PREFETCH ISSUED TO LOWER LEVEL:     313547  ACCURACY: 0.866856
LLC TIMELY PREFETCHES:       2718 LATE PREFETCHES: 0 DROPPED PREFETCHES: 0
LLC PREFETCHES SAME FILL-ORIGIN LEVEL: 0 DIFFERENT FILL-ORIGIN LEVEL: 0
LLC AVERAGE MISS LATENCY: 177.271 cycles
LLC RQ	ACCESS:    1290175	FORWARD:          0	MERGED:          0	TO_CACHE:    1290174
LLC WQ	ACCESS:    1091058	FORWARD:          1	MERGED:          0	TO_CACHE:    1091058
LLC PQ	ACCESS:     508012	FORWARD:          0	MERGED:          0	TO_CACHE:     508012

LLC Dense regions hint to LLC: 0

RAW hits: 1389762
Loads Generated: 12456735
Loads sent to L1D: 11066973
Stores Generated: 8887926
Stores sent to L1D: 8887929
Major fault: 0 Minor fault: 23677
Allocated PAGES: 23677
I-Shadow cache 408 bytes
Touched + WorthPF tables 6144 bytes 
MMA filter 174 bytes 
FNL filter 272 bytes 
TOTAL PREFETCHER STORAGE SIZE: 25174 bytes
CPU 0 L1I next line prefetcher final stats

stream: 
stream:times selected: 3701875
stream:pref_filled: 58856
stream:pref_useful: 15999
stream:pref_late: 5952
stream:misses: 13446
stream:misses_by_poll: 0

CS: 
CS:times selected: 3436088
CS:pref_filled: 603241
CS:pref_useful: 581916
CS:pref_late: 51182
CS:misses: 61609
CS:misses_by_poll: 641

CPLX: 
CPLX:times selected: 260309
CPLX:pref_filled: 13557
CPLX:pref_useful: 1767
CPLX:pref_late: 464
CPLX:misses: 39595
CPLX:misses_by_poll: 0

NL_L1: 
NL:times selected: 1035
NL:pref_filled: 204
NL:pref_useful: 9
NL:pref_late: 1
NL:misses: 192
NL:misses_by_poll: 0

total selections: 7399307
total_filled: 299339
total_useful: 272043
total_late: 58809
total_polluted: 641
total_misses_after_warmup: 590985
conflicts: 2588516
Degree Incremented Times: 78762
Degree Decremented Times: 164423

L1 IP Table Write Accesses: 4698117
L1 IP Table Read Accesses: 2109601
L1 RST Write Accesses: 1850428
L1 RST Read Accesses: 3700856
L1 CSPT Write Accesses: 1850428
L1 CSPT Read Accesses: 1976104
L1 RR Filter Tag Write Accesses: 625236
L1 RR Filter Tag Read Accesses: 208375933
L1 IP Table Tag Write Accesses: 7423974
L1 IP Table Tag Read Accesses: 7423974
L1 RST Tag Write Accesses: 0
L1 RST Tag Read Accesses: 16925313
L1 RR Filter Write Accesses: 0
L1 RR Filter Read Accesses: 6755650
test: 131336
L2 IP Table Read Accesses: 4139869
L2 IP Table Write Accesses: 7735857
L2 IP Table Tag Read Accesses: 3910532
L2 IP Table Tag Write Accesses: 3910532

DRAM Statistics
 CHANNEL 0
 RQ ROW_BUFFER_HIT:     449995  ROW_BUFFER_MISS:     653149
 DBUS_CONGESTED:        602
 WQ ROW_BUFFER_HIT:     233439  ROW_BUFFER_MISS:     521482  FULL:       7089

 AVG_CONGESTED_CYCLE: 3
 All warmup complete: 2
Channel 0 Bank busy for read cycles: 0
Channel 0 Bank busy for write cycles: 0
Channel 0
Rank 0
0banks busy for read cycles: 28217273
0banks busy for write cycles: 43699
1banks busy for read cycles: 11425985
1banks busy for write cycles: 6279689
2banks busy for read cycles: 6176985
2banks busy for write cycles: 2804428
3banks busy for read cycles: 4464522
3banks busy for write cycles: 1602942
4banks busy for read cycles: 6033845
4banks busy for write cycles: 1322361
5banks busy for read cycles: 1438271
5banks busy for write cycles: 1295739
6banks busy for read cycles: 1162426
6banks busy for write cycles: 1377940
7banks busy for read cycles: 1173666
7banks busy for write cycles: 2117352
8banks busy for read cycles: 4855166
8banks busy for write cycles: 10691300

CPU 0 Branch Prediction Accuracy: 99.8317% MPKI: 0.27564 Average ROB Occupancy at Mispredict: 110.677
Branch types
NOT_BRANCH: 41810974 83.6219%
BRANCH_DIRECT_JUMP: 445734 0.891468%
BRANCH_INDIRECT: 48875 0.09775%
BRANCH_CONDITIONAL: 5859373 11.7187%
BRANCH_DIRECT_CALL: 758262 1.51652%
BRANCH_INDIRECT_CALL: 159103 0.318206%
BRANCH_RETURN: 917368 1.83474%
BRANCH_OTHER: 0 0%

DRAM PAGES: 1048576
Allocated PAGES: 23677
