
*** ChampSim Multicore Out-of-Order Simulator ***

Warmup Instructions: 50000000
Simulation Instructions: 50000000
Number of CPUs: 1
LLC sets: 2048
LLC ways: 16
Off-chip DRAM Size: 4096 MB Channels: 1 Width: 64-bit Data Rate: 6400 MT/s
CPU 0 runs ../IPC-traces//server_023.champsimtrace.xz
.xz
NUM_OF_IPS_IN_CRITICAL_IP_TRAINING: 64
NUM_OF_CRITICAL_IP_TRAINING_TABLE_WAYS: 2
NUM_OF_CRITICAL_IP_TRAINING_TABLE_SETS: 32
WOBBLY_CRITICAL_IP_CACHE_SETS: 32
WOBBLY_CRITICAL_IP_CACHE_WAYS: 4
BTB has LRU replacement policy
ITLB has LRU replacement policy
DTLB has LRU replacement policy
STLB has LRU replacement policy
CPU 0 L1I next line prefetcher
L1I has LRU replacement policy
IP Table Entries: 256
L1D has LRU replacement policy
Initialize SRRIP state for L2C
Initialize DRRIP state for LLC
Heartbeat CPU 0 instructions: 10000001 cycles: 2874025 heartbeat IPC: 3.47944 cumulative IPC: 3.47944 (Simulation time: 0 hr 3 min 17 sec) 
Heartbeat CPU 0 instructions: 20000000 cycles: 5744985 heartbeat IPC: 3.48316 cumulative IPC: 3.4813 (Simulation time: 0 hr 6 min 15 sec) 
Heartbeat CPU 0 instructions: 30000002 cycles: 8612685 heartbeat IPC: 3.48712 cumulative IPC: 3.48323 (Simulation time: 0 hr 8 min 39 sec) 
Heartbeat CPU 0 instructions: 40000002 cycles: 11482370 heartbeat IPC: 3.4847 cumulative IPC: 3.4836 (Simulation time: 0 hr 10 min 49 sec) 
Heartbeat CPU 0 instructions: 50000001 cycles: 14353045 heartbeat IPC: 3.4835 cumulative IPC: 3.48358 (Simulation time: 0 hr 12 min 57 sec) 

Warmup complete CPU 0 instructions: 50000001 cycles: 14353045 (Simulation time: 0 hr 12 min 57 sec) 

Heartbeat CPU 0 instructions: 60000000 cycles: 30290389 heartbeat IPC: 0.627457 cumulative IPC: 0.627457 (Simulation time: 0 hr 15 min 19 sec) 
Heartbeat CPU 0 instructions: 70000000 cycles: 46452195 heartbeat IPC: 0.618743 cumulative IPC: 0.623069 (Simulation time: 0 hr 17 min 36 sec) 
Heartbeat CPU 0 instructions: 80000000 cycles: 62409812 heartbeat IPC: 0.62666 cumulative IPC: 0.624262 (Simulation time: 0 hr 19 min 53 sec) 
Heartbeat CPU 0 instructions: 90000000 cycles: 77851543 heartbeat IPC: 0.647596 cumulative IPC: 0.629936 (Simulation time: 0 hr 22 min 4 sec) 
Heartbeat CPU 0 instructions: 100000001 cycles: 93775577 heartbeat IPC: 0.627982 cumulative IPC: 0.629544 (Simulation time: 0 hr 24 min 15 sec) 
Finished CPU 0 instructions: 50000000 cycles: 79422532 cumulative IPC: 0.629544 (Simulation time: 0 hr 24 min 15 sec) 

ChampSim completed all CPUs

Region of Interest Statistics

CPU 0 cumulative IPC: 0.629544 instructions: 50000000 cycles: 79422532

CPU 0 Average Load ROB stall cycles: 2.00035e+07
CPU 0 Fraction of times ROB stalled by Loads: 36.921
CPU 0 Percentage of Load stall cycles in Total stall cycles: 2.79372e+08
Issued all: 27969073
Issued LT all: 22052788
rob_not_full_when_issued_lt_all: 21611646
Issued LT one: 17224349
rob_not_full_when_issued_lt_one: 16837617
 Total stall cycles: 65984084
 Total load stall cycles: 184340776894896
CPU 0 NUM of IPS identified critical: 0
CPU 0 Num of Load IPs stalling ROB: 13673
Threshold modification factor: 0
Max PIST entries: 64
Min PIST entries: 0
Avg PIST entries: 31.98
Trouble in retire width: 0.893736
MaC = Marked as critical.
lt_50_percent_before_Mac: 0
gt_90_percent_before_Mac: 0
gt_75_percent_before_Mac: 0
gt_50_percent_before_Mac: 0
stall_proportion_bin_same_before_after: 0
stall_proportion_bin_lower_before_after: 0
stall_proportion_bin_upper_before_after: 0
average_stall_proportion_before: -nan
average_stall_proportion_after: -nan
Critical IP stalls, total frequency: 0
Non-critical IP stalls, total frequency: 3402430
Total Freq all stalling IPs: 3402430
stat_90_percent_critical_ip_stalls_freq: 3062382
stat_90_percent_non_critical_ip_stalls_freq: 340048
Critical_IP_ROB_Stalls_Bucket_0: 0
Non-critical_IP_ROB_Stalls_Bucket_0: 2349720
Critical_IP_ROB_Stalls_Bucket_1: 0
Non-critical_IP_ROB_Stalls_Bucket_1: 693900
Critical_IP_ROB_Stalls_Bucket_2: 0
Non-critical_IP_ROB_Stalls_Bucket_2: 246257
Critical_IP_ROB_Stalls_Bucket_3: 0
Non-critical_IP_ROB_Stalls_Bucket_3: 60622
Critical_IP_ROB_Stalls_Bucket_4: 0
Non-critical_IP_ROB_Stalls_Bucket_4: 20707
Critical_IP_ROB_Stalls_Bucket_5: 0
Non-critical_IP_ROB_Stalls_Bucket_5: 9364
Critical_IP_ROB_Stalls_Bucket_6: 0
Non-critical_IP_ROB_Stalls_Bucket_6: 21860
0 => IPs accounting for >50 percent of stalls, 1 => 55, 2 => 60, 3 => 65 and so on till 90.
percent50: 50.0103 num IPs:  385
percent55: 55.0129 num IPs: 559
percent60: 60.0019 num IPs: 795
percent65: 65.0182 num IPs: 1062
percent70: 70.015 num IPs: 1365
percent75: 75.0057 num IPs: 1730
percent80: 80.0063 num IPs: 2231
percent85: 85.0087 num IPs: 2764
percent90: 90.0066 num IPs: 3336
Critical_ROB_Stalls_Percent_0_Bucket_0: 960958
Non-critical_ROB_Stalls_Percent_0_Bucket_0: 1388762
Critical_ROB_Stalls_Percent_0_Bucket_1: 456577
Non-critical_ROB_Stalls_Percent_0_Bucket_1: 237323
Critical_ROB_Stalls_Percent_0_Bucket_2: 187943
Non-critical_ROB_Stalls_Percent_0_Bucket_2: 58314
Critical_ROB_Stalls_Percent_0_Bucket_3: 50249
Non-critical_ROB_Stalls_Percent_0_Bucket_3: 10373
Critical_ROB_Stalls_Percent_0_Bucket_4: 17561
Non-critical_ROB_Stalls_Percent_0_Bucket_4: 3146
Critical_ROB_Stalls_Percent_0_Bucket_5: 8217
Non-critical_ROB_Stalls_Percent_0_Bucket_5: 1147
Critical_ROB_Stalls_Percent_0_Bucket_6: 20059
Non-critical_ROB_Stalls_Percent_0_Bucket_6: 1801
Critical_ROB_Stalls_Percent_1_Bucket_0: 1075134
Non-critical_ROB_Stalls_Percent_1_Bucket_0: 1274586
Critical_ROB_Stalls_Percent_1_Bucket_1: 496474
Non-critical_ROB_Stalls_Percent_1_Bucket_1: 197426
Critical_ROB_Stalls_Percent_1_Bucket_2: 201577
Non-critical_ROB_Stalls_Percent_1_Bucket_2: 44680
Critical_ROB_Stalls_Percent_1_Bucket_3: 52286
Non-critical_ROB_Stalls_Percent_1_Bucket_3: 8336
Critical_ROB_Stalls_Percent_1_Bucket_4: 17973
Non-critical_ROB_Stalls_Percent_1_Bucket_4: 2734
Critical_ROB_Stalls_Percent_1_Bucket_5: 8238
Non-critical_ROB_Stalls_Percent_1_Bucket_5: 1126
Critical_ROB_Stalls_Percent_1_Bucket_6: 20095
Non-critical_ROB_Stalls_Percent_1_Bucket_6: 1765
Critical_ROB_Stalls_Percent_2_Bucket_0: 1201777
Non-critical_ROB_Stalls_Percent_2_Bucket_0: 1147943
Critical_ROB_Stalls_Percent_2_Bucket_1: 526566
Non-critical_ROB_Stalls_Percent_2_Bucket_1: 167334
Critical_ROB_Stalls_Percent_2_Bucket_2: 212398
Non-critical_ROB_Stalls_Percent_2_Bucket_2: 33859
Critical_ROB_Stalls_Percent_2_Bucket_3: 53834
Non-critical_ROB_Stalls_Percent_2_Bucket_3: 6788
Critical_ROB_Stalls_Percent_2_Bucket_4: 18462
Non-critical_ROB_Stalls_Percent_2_Bucket_4: 2245
Critical_ROB_Stalls_Percent_2_Bucket_5: 8288
Non-critical_ROB_Stalls_Percent_2_Bucket_5: 1076
Critical_ROB_Stalls_Percent_2_Bucket_6: 20196
Non-critical_ROB_Stalls_Percent_2_Bucket_6: 1664
Critical_ROB_Stalls_Percent_3_Bucket_0: 1336337
Non-critical_ROB_Stalls_Percent_3_Bucket_0: 1013383
Critical_ROB_Stalls_Percent_3_Bucket_1: 556542
Non-critical_ROB_Stalls_Percent_3_Bucket_1: 137358
Critical_ROB_Stalls_Percent_3_Bucket_2: 217832
Non-critical_ROB_Stalls_Percent_3_Bucket_2: 28425
Critical_ROB_Stalls_Percent_3_Bucket_3: 54476
Non-critical_ROB_Stalls_Percent_3_Bucket_3: 6146
Critical_ROB_Stalls_Percent_3_Bucket_4: 18503
Non-critical_ROB_Stalls_Percent_3_Bucket_4: 2204
Critical_ROB_Stalls_Percent_3_Bucket_5: 8299
Non-critical_ROB_Stalls_Percent_3_Bucket_5: 1065
Critical_ROB_Stalls_Percent_3_Bucket_6: 20209
Non-critical_ROB_Stalls_Percent_3_Bucket_6: 1651
Critical_ROB_Stalls_Percent_4_Bucket_0: 1467486
Non-critical_ROB_Stalls_Percent_4_Bucket_0: 882234
Critical_ROB_Stalls_Percent_4_Bucket_1: 587389
Non-critical_ROB_Stalls_Percent_4_Bucket_1: 106511
Critical_ROB_Stalls_Percent_4_Bucket_2: 224082
Non-critical_ROB_Stalls_Percent_4_Bucket_2: 22175
Critical_ROB_Stalls_Percent_4_Bucket_3: 55505
Non-critical_ROB_Stalls_Percent_4_Bucket_3: 5117
Critical_ROB_Stalls_Percent_4_Bucket_4: 18702
Non-critical_ROB_Stalls_Percent_4_Bucket_4: 2005
Critical_ROB_Stalls_Percent_4_Bucket_5: 8362
Non-critical_ROB_Stalls_Percent_4_Bucket_5: 1002
Critical_ROB_Stalls_Percent_4_Bucket_6: 20682
Non-critical_ROB_Stalls_Percent_4_Bucket_6: 1178
Critical_ROB_Stalls_Percent_5_Bucket_0: 1608332
Non-critical_ROB_Stalls_Percent_5_Bucket_0: 741388
Critical_ROB_Stalls_Percent_5_Bucket_1: 609942
Non-critical_ROB_Stalls_Percent_5_Bucket_1: 83958
Critical_ROB_Stalls_Percent_5_Bucket_2: 228920
Non-critical_ROB_Stalls_Percent_5_Bucket_2: 17337
Critical_ROB_Stalls_Percent_5_Bucket_3: 56716
Non-critical_ROB_Stalls_Percent_5_Bucket_3: 3906
Critical_ROB_Stalls_Percent_5_Bucket_4: 18970
Non-critical_ROB_Stalls_Percent_5_Bucket_4: 1737
Critical_ROB_Stalls_Percent_5_Bucket_5: 8428
Non-critical_ROB_Stalls_Percent_5_Bucket_5: 936
Critical_ROB_Stalls_Percent_5_Bucket_6: 20706
Non-critical_ROB_Stalls_Percent_5_Bucket_6: 1154
Critical_ROB_Stalls_Percent_6_Bucket_0: 1750235
Non-critical_ROB_Stalls_Percent_6_Bucket_0: 599485
Critical_ROB_Stalls_Percent_6_Bucket_1: 630879
Non-critical_ROB_Stalls_Percent_6_Bucket_1: 63021
Critical_ROB_Stalls_Percent_6_Bucket_2: 235377
Non-critical_ROB_Stalls_Percent_6_Bucket_2: 10880
Critical_ROB_Stalls_Percent_6_Bucket_3: 57253
Non-critical_ROB_Stalls_Percent_6_Bucket_3: 3369
Critical_ROB_Stalls_Percent_6_Bucket_4: 19108
Non-critical_ROB_Stalls_Percent_6_Bucket_4: 1599
Critical_ROB_Stalls_Percent_6_Bucket_5: 8461
Non-critical_ROB_Stalls_Percent_6_Bucket_5: 903
Critical_ROB_Stalls_Percent_6_Bucket_6: 20833
Non-critical_ROB_Stalls_Percent_6_Bucket_6: 1027
Critical_ROB_Stalls_Percent_7_Bucket_0: 1898883
Non-critical_ROB_Stalls_Percent_7_Bucket_0: 450837
Critical_ROB_Stalls_Percent_7_Bucket_1: 648835
Non-critical_ROB_Stalls_Percent_7_Bucket_1: 45065
Critical_ROB_Stalls_Percent_7_Bucket_2: 237795
Non-critical_ROB_Stalls_Percent_7_Bucket_2: 8462
Critical_ROB_Stalls_Percent_7_Bucket_3: 58046
Non-critical_ROB_Stalls_Percent_7_Bucket_3: 2576
Critical_ROB_Stalls_Percent_7_Bucket_4: 19403
Non-critical_ROB_Stalls_Percent_7_Bucket_4: 1304
Critical_ROB_Stalls_Percent_7_Bucket_5: 8476
Non-critical_ROB_Stalls_Percent_7_Bucket_5: 888
Critical_ROB_Stalls_Percent_7_Bucket_6: 20893
Non-critical_ROB_Stalls_Percent_7_Bucket_6: 967
Critical_ROB_Stalls_Percent_8_Bucket_0: 2053812
Non-critical_ROB_Stalls_Percent_8_Bucket_0: 295908
Critical_ROB_Stalls_Percent_8_Bucket_1: 660804
Non-critical_ROB_Stalls_Percent_8_Bucket_1: 33096
Critical_ROB_Stalls_Percent_8_Bucket_2: 238890
Non-critical_ROB_Stalls_Percent_8_Bucket_2: 7367
Critical_ROB_Stalls_Percent_8_Bucket_3: 58535
Non-critical_ROB_Stalls_Percent_8_Bucket_3: 2087
Critical_ROB_Stalls_Percent_8_Bucket_4: 19978
Non-critical_ROB_Stalls_Percent_8_Bucket_4: 729
Critical_ROB_Stalls_Percent_8_Bucket_5: 8914
Non-critical_ROB_Stalls_Percent_8_Bucket_5: 450
Critical_ROB_Stalls_Percent_8_Bucket_6: 21449
Non-critical_ROB_Stalls_Percent_8_Bucket_6: 411
Average ROB occupancy Load Stall Begin: 38.5928
Average ROB occupancy Load Stall End: 46.8486
Min ROB occupancy Load Stall Begin: 1
Max ROB occupancy Load Stall Begin: 352
Min ROB occupancy Load Stall End: 1
Max ROB occupancy Load Stall End: 352
Average ROB occupancy Critical Load Stall Begin: -nan
Average ROB occupancy Critical Load Stall End: -nan
Min ROB occupancy Critical Load Stall Begin: 400
Max ROB occupancy Critical Load Stall Begin: 0
Min ROB occupancy Critical Load Stall End: 400
Max ROB occupancy Critical Load Stall End: 0
 ROB Load Stall Begin Bucket Count 0: 2578707
 ROB Load Stall End Bucket Count 0: 2349720
 ROB Critical Load Stall Begin Bucket Count 0: 0
 ROB Critical Load Stall End Bucket Count 0: 0
 ROB Load Stall Begin Bucket Count 1: 551649
 ROB Load Stall End Bucket Count 1: 693900
 ROB Critical Load Stall Begin Bucket Count 1: 0
 ROB Critical Load Stall End Bucket Count 1: 0
 ROB Load Stall Begin Bucket Count 2: 183007
 ROB Load Stall End Bucket Count 2: 246257
 ROB Critical Load Stall Begin Bucket Count 2: 0
 ROB Critical Load Stall End Bucket Count 2: 0
 ROB Load Stall Begin Bucket Count 3: 43323
 ROB Load Stall End Bucket Count 3: 60622
 ROB Critical Load Stall Begin Bucket Count 3: 0
 ROB Critical Load Stall End Bucket Count 3: 0
 ROB Load Stall Begin Bucket Count 4: 16489
 ROB Load Stall End Bucket Count 4: 20707
 ROB Critical Load Stall Begin Bucket Count 4: 0
 ROB Critical Load Stall End Bucket Count 4: 0
 ROB Load Stall Begin Bucket Count 5: 8348
 ROB Load Stall End Bucket Count 5: 9364
 ROB Critical Load Stall Begin Bucket Count 5: 0
 ROB Critical Load Stall End Bucket Count 5: 0
 ROB Load Stall Begin Bucket Count 6: 20907
 ROB Load Stall End Bucket Count 6: 21860
 ROB Critical Load Stall Begin Bucket Count 6: 0
 ROB Critical Load Stall End Bucket Count 6: 0
PIST Tag Read Accesses: 1746852
PIST Read Accesses: 873426
PIST Tag Write Accesses: 1746852
PIST Write Accesses: 873426
Criticality detector called times: 3244600
Max global_stall_cycles_count: 1722790
Threshold Modified: 0 times, factor: 0
Sturdy critical IP cache stats: 
 Unused entries: 0
CIC Tag Read Accesses: 0
CIC Read Accesses: 0
CIC Tag Write Accesses: 0
CIC Write Accesses: 0
Wobbly critical IP cache stats: 
 Unused entries: 114
CIC Tag Read Accesses: 154319330
CIC Read Accesses: 0
CIC Tag Write Accesses: 174
CIC Write Accesses: 0
ITLB TOTAL     ACCESS:    9950482  HIT:    9362764  MISS:     587718  HIT %:    94.0936  MISS %:    5.90643   MPKI: 11.7544
ITLB LOAD TRANSLATION ACCESS:    8221277  HIT:    8131007  MISS:      90270  HIT %:     98.902  MISS %:      1.098   MPKI: 1.8054
ITLB TRANSLATION FROM L1D PREFETCHER ACCESS:    1729205  HIT:    1231757  MISS:     497448  HIT %:    71.2326  MISS %:    28.7674   MPKI: 9.94896
ITLB PREFETCH  REQUESTED:          0  ISSUED:          0  USEFUL:     390311  USELESS:     107153
ITLB USEFUL LOAD PREFETCHES:     390311 PREFETCH ISSUED TO LOWER LEVEL:          0  ACCURACY: inf
ITLB TIMELY PREFETCHES:     390311 LATE PREFETCHES: 282 DROPPED PREFETCHES: 3053
ITLB PREFETCHES SAME FILL-ORIGIN LEVEL: 0 DIFFERENT FILL-ORIGIN LEVEL: 0
ITLB AVERAGE MISS LATENCY: 22837.9 cycles
ITLB RQ	ACCESS:   14402001	FORWARD:          0	MERGED:    4409052	TO_CACHE:    9992949

DTLB TOTAL     ACCESS:   11088649  HIT:   10637559  MISS:     451090  HIT %:     95.932  MISS %:    4.06803   MPKI: 9.0218
DTLB LOAD TRANSLATION ACCESS:   11088649  HIT:   10637559  MISS:     451090  HIT %:     95.932  MISS %:    4.06803   MPKI: 9.0218
DTLB PREFETCH  REQUESTED:          0  ISSUED:          0  USEFUL:          0  USELESS:          0
DTLB USEFUL LOAD PREFETCHES:          0 PREFETCH ISSUED TO LOWER LEVEL:          0  ACCURACY: -nan
DTLB TIMELY PREFETCHES:          0 LATE PREFETCHES: 0 DROPPED PREFETCHES: 0
DTLB PREFETCHES SAME FILL-ORIGIN LEVEL: 0 DIFFERENT FILL-ORIGIN LEVEL: 0
DTLB AVERAGE MISS LATENCY: 9.56929 cycles
DTLB RQ	ACCESS:   14444242	FORWARD:          0	MERGED:    3329348	TO_CACHE:   11114894

STLB TOTAL     ACCESS:    1051181  HIT:    1048114  MISS:       3067  HIT %:    99.7082  MISS %:   0.291767   MPKI: 0.06134
STLB LOAD TRANSLATION ACCESS:     541079  HIT:     538254  MISS:       2825  HIT %:    99.4779  MISS %:   0.522105   MPKI: 0.0565
STLB TRANSLATION FROM L1D PREFETCHER ACCESS:     510102  HIT:     509860  MISS:        242  HIT %:    99.9526  MISS %:  0.0474415   MPKI: 0.00484
STLB PREFETCH  REQUESTED:          0  ISSUED:          0  USEFUL:        198  USELESS:         43
STLB USEFUL LOAD PREFETCHES:        198 PREFETCH ISSUED TO LOWER LEVEL:          0  ACCURACY: inf
STLB TIMELY PREFETCHES:        198 LATE PREFETCHES: 0 DROPPED PREFETCHES: 3054
STLB PREFETCHES SAME FILL-ORIGIN LEVEL: 0 DIFFERENT FILL-ORIGIN LEVEL: 0
STLB AVERAGE MISS LATENCY: 95.2136 cycles
STLB RQ	ACCESS:    1056853	FORWARD:          0	MERGED:       2618	TO_CACHE:    1054235

STLB Hit, L1D data hit: 0
STLB Hit, L2C data hit: 0
STLB Hit, LLC data hit: 0
STLB Hit, LLC data miss: 0
STLB STLB hints to L2: 0
L1D TOTAL     ACCESS:   13982868  HIT:   13020294  MISS:     962574  HIT %:     93.116  MISS %:    6.88395   MPKI: 19.2515
L1D LOAD      ACCESS:    7898342  HIT:    7209526  MISS:     688816  HIT %:     91.279  MISS %:    8.72102   MPKI: 13.7763
L1D RFO       ACCESS:    6072211  HIT:    5804178  MISS:     268033  HIT %:    95.5859  MISS %:    4.41409   MPKI: 5.36066
L1D PREFETCH  ACCESS:      12315  HIT:       6590  MISS:       5725  HIT %:     53.512  MISS %:     46.488   MPKI: 0.1145
L1D PREFETCH  REQUESTED:      29982  ISSUED:      29982  USEFUL:       3305  USELESS:       2420
L1D USEFUL LOAD PREFETCHES:       3305 PREFETCH ISSUED TO LOWER LEVEL:       7096  ACCURACY: 46.5755
L1D TIMELY PREFETCHES:       3305 LATE PREFETCHES: 1371 DROPPED PREFETCHES: 0
L1D PREFETCHES SAME FILL-ORIGIN LEVEL: 7096 DIFFERENT FILL-ORIGIN LEVEL: 0
L1D AVERAGE MISS LATENCY: 91268.8 cycles
L1D RQ	ACCESS:   11303247	FORWARD:          0	MERGED:    3242801	TO_CACHE:    7934392
L1D WQ	ACCESS:    6576972	FORWARD:     126054	MERGED:      67122	TO_CACHE:    6509850
L1D PQ	ACCESS:      14991	FORWARD:          0	MERGED:          0	TO_CACHE:      14991

L1D UNIQUE REGIONS ACCESSED: 0
L1D REGIONS CONFLICTS: 0
L1D Cross Page Prefetch Requests: 0
L1D Same Page Prefetch Requests: 14991
L1D ROI Sum of L1D PQ occupancy: 234271
L1D PREFETCHES PUSHED FROM L2C: 0
L1I TOTAL     ACCESS:   14255400  HIT:   10662548  MISS:    3592852  HIT %:    74.7966  MISS %:    25.2034   MPKI: 71.857
L1I LOAD      ACCESS:    9512939  HIT:    9225473  MISS:     287466  HIT %:    96.9782  MISS %:    3.02184   MPKI: 5.74932
L1I PREFETCH  ACCESS:    4742461  HIT:    1437075  MISS:    3305386  HIT %:    30.3023  MISS %:    69.6977   MPKI: 66.1077
L1I PREFETCH  REQUESTED:    4991462  ISSUED:    4979302  USEFUL:    2230637  USELESS:    1074808
L1I USEFUL LOAD PREFETCHES:    2230637 PREFETCH ISSUED TO LOWER LEVEL:    3336682  ACCURACY: 66.852
L1I TIMELY PREFETCHES:    2230637 LATE PREFETCHES: 31296 DROPPED PREFETCHES: 7409
L1I PREFETCHES SAME FILL-ORIGIN LEVEL: 3336682 DIFFERENT FILL-ORIGIN LEVEL: 0
L1I AVERAGE MISS LATENCY: 461639 cycles
L1I RQ	ACCESS:   13480960	FORWARD:          0	MERGED:    3942767	TO_CACHE:    9538193
L1I PQ	ACCESS:    4979302	FORWARD:          0	MERGED:     115494	TO_CACHE:    4863808

BTB TOTAL     ACCESS:    6310560  HIT:    4653140  MISS:    1657420  HIT %:    73.7358  MISS %:    26.2642   MPKI: 33.1484
BTB BRANCH_DIRECT_JUMP	ACCESS:     548369  HIT:     407711  MISS:     140658
BTB BRANCH_INDIRECT	ACCESS:     189803  HIT:     158499  MISS:      31304
BTB BRANCH_CONDITIONAL	ACCESS:    3531693  HIT:    3094100  MISS:     437593
BTB BRANCH_DIRECT_CALL	ACCESS:     862206  HIT:     537302  MISS:     324904
BTB BRANCH_INDIRECT_CALL	ACCESS:     158147  HIT:      91210  MISS:      66937
BTB BRANCH_RETURN	ACCESS:    1020342  HIT:     364318  MISS:     656024
BTB BRANCH_OTHER ACCESS:          0  HIT:          0  MISS:          0

L2C TOTAL     ACCESS:    5494920  HIT:    4861448  MISS:     633472  HIT %:    88.4717  MISS %:    11.5283   MPKI: 12.6694
L2C LOAD      ACCESS:     943578  HIT:     750745  MISS:     192833  HIT %:    79.5636  MISS %:    20.4364   MPKI: 3.85666
L2C DATA LOAD MPKI: 3.05996
L2C INSTRUCTION LOAD MPKI: 0.7967
L2C RFO       ACCESS:     268029  HIT:     199082  MISS:      68947  HIT %:    74.2763  MISS %:    25.7237   MPKI: 1.37894
L2C PREFETCH  ACCESS:    3822526  HIT:    3477585  MISS:     344941  HIT %:    90.9761  MISS %:     9.0239   MPKI: 6.89882
L2C DATA PREFETCH MPKI: 1.46308
L2C INSTRUCTION PREFETCH MPKI: 5.43574
L2C WRITEBACK ACCESS:     452362  HIT:     428157  MISS:      24205  HIT %:    94.6492  MISS %:     5.3508   MPKI: 0.4841
L2C LOAD TRANSLATION ACCESS:       3061  HIT:        816  MISS:       2245  HIT %:     26.658  MISS %:     73.342   MPKI: 0.0449
L2C TRANSLATION FROM L1D PREFETCHER ACCESS:       5364  HIT:       5063  MISS:        301  HIT %:    94.3885  MISS %:    5.61148   MPKI: 0.00602
L2C PREFETCH  REQUESTED:    1320399  ISSUED:    1320399  USEFUL:      10282  USELESS:     335252
L2C USEFUL LOAD PREFETCHES:      10282 PREFETCH ISSUED TO LOWER LEVEL:     345059  ACCURACY: 2.97978
L2C TIMELY PREFETCHES:      10282 LATE PREFETCHES: 118 DROPPED PREFETCHES: 0
L2C PREFETCHES SAME FILL-ORIGIN LEVEL: 68347 DIFFERENT FILL-ORIGIN LEVEL: 0
L2C AVERAGE MISS LATENCY: 38.799 cycles
L2C RQ	ACCESS:    1220073	FORWARD:          0	MERGED:          0	TO_CACHE:    1220032
L2C WQ	ACCESS:     452362	FORWARD:         41	MERGED:          0	TO_CACHE:     452362
L2C PQ	ACCESS:    4664177	FORWARD:          0	MERGED:     839362	TO_CACHE:    3824815

L2C Instructions Evicting Data 149961
L2C Translations Evicting Data 1562
L2C Data Evicting Data 155749
L2C Instructions Evicting Instructions 160733
L2C Translations Evicting Instructions 963
L2C Data Evicting Instructions 137842
L2C Instructions Evicting Translations 928
L2C Translations Evicting Translations 21
L2C Data Evicting Translations 1508
L2C Dense regions hint from L2: 0
PSCL5 TOTAL     ACCESS:       6121  HIT:       6121  MISS:          0  HIT %:        100  MISS %:          0   MPKI: 0
PSCL5 LOAD TRANSLATION ACCESS:       2825  HIT:       2825  MISS:          0  HIT %:        100  MISS %:          0   MPKI: 0
PSCL5 TRANSLATION FROM L1D PREFETCHER ACCESS:       3296  HIT:       3296  MISS:          0  HIT %:        100  MISS %:          0   MPKI: 0
PSCL5 PREFETCH  REQUESTED:          0  ISSUED:          0  USEFUL:          0  USELESS:          0
PSCL5 USEFUL LOAD PREFETCHES:          0 PREFETCH ISSUED TO LOWER LEVEL:          0  ACCURACY: -nan
PSCL5 TIMELY PREFETCHES:          0 LATE PREFETCHES: 0 DROPPED PREFETCHES: 0
PSCL5 PREFETCHES SAME FILL-ORIGIN LEVEL: 0 DIFFERENT FILL-ORIGIN LEVEL: 0

PSCL4 TOTAL     ACCESS:       5777  HIT:       5761  MISS:         16  HIT %:     99.723  MISS %:    0.27696   MPKI: 0.00032
PSCL4 LOAD TRANSLATION ACCESS:       2493  HIT:       2477  MISS:         16  HIT %:    99.3582  MISS %:   0.641797   MPKI: 0.00032
PSCL4 TRANSLATION FROM L1D PREFETCHER ACCESS:       3284  HIT:       3284  MISS:          0  HIT %:        100  MISS %:          0   MPKI: 0
PSCL4 PREFETCH  REQUESTED:          0  ISSUED:          0  USEFUL:          0  USELESS:          0
PSCL4 USEFUL LOAD PREFETCHES:          0 PREFETCH ISSUED TO LOWER LEVEL:          0  ACCURACY: -nan
PSCL4 TIMELY PREFETCHES:          0 LATE PREFETCHES: 0 DROPPED PREFETCHES: 0
PSCL4 PREFETCHES SAME FILL-ORIGIN LEVEL: 0 DIFFERENT FILL-ORIGIN LEVEL: 0

PSCL3 TOTAL     ACCESS:       6092  HIT:       6076  MISS:         16  HIT %:    99.7374  MISS %:    0.26264   MPKI: 0.00032
PSCL3 LOAD TRANSLATION ACCESS:       2808  HIT:       2792  MISS:         16  HIT %:    99.4302  MISS %:   0.569801   MPKI: 0.00032
PSCL3 TRANSLATION FROM L1D PREFETCHER ACCESS:       3284  HIT:       3284  MISS:          0  HIT %:        100  MISS %:          0   MPKI: 0
PSCL3 PREFETCH  REQUESTED:          0  ISSUED:          0  USEFUL:          0  USELESS:          0
PSCL3 USEFUL LOAD PREFETCHES:          0 PREFETCH ISSUED TO LOWER LEVEL:          0  ACCURACY: -nan
PSCL3 TIMELY PREFETCHES:          0 LATE PREFETCHES: 0 DROPPED PREFETCHES: 0
PSCL3 PREFETCHES SAME FILL-ORIGIN LEVEL: 0 DIFFERENT FILL-ORIGIN LEVEL: 0

PSCL2 TOTAL     ACCESS:       4111  HIT:       3836  MISS:        275  HIT %:    93.3106  MISS %:    6.68937   MPKI: 0.0055
PSCL2 LOAD TRANSLATION ACCESS:       2861  HIT:       2586  MISS:        275  HIT %:     90.388  MISS %:    9.61202   MPKI: 0.0055
PSCL2 TRANSLATION FROM L1D PREFETCHER ACCESS:       1250  HIT:       1250  MISS:          0  HIT %:        100  MISS %:          0   MPKI: 0
PSCL2 PREFETCH  REQUESTED:          0  ISSUED:          0  USEFUL:          0  USELESS:          0
PSCL2 USEFUL LOAD PREFETCHES:          0 PREFETCH ISSUED TO LOWER LEVEL:          0  ACCURACY: -nan
PSCL2 TIMELY PREFETCHES:          0 LATE PREFETCHES: 0 DROPPED PREFETCHES: 0
PSCL2 PREFETCHES SAME FILL-ORIGIN LEVEL: 0 DIFFERENT FILL-ORIGIN LEVEL: 0

LLC TOTAL     ACCESS:     707699  HIT:     669185  MISS:      38514  HIT %:    94.5579  MISS %:    5.44214   MPKI: 0.77028
LLC LOAD      ACCESS:     192714  HIT:     178427  MISS:      14287  HIT %:    92.5864  MISS %:    7.41358   MPKI: 0.28574
LLC RFO       ACCESS:      68946  HIT:      49814  MISS:      19132  HIT %:    72.2507  MISS %:    27.7493   MPKI: 0.38264
LLC PREFETCH  ACCESS:     345058  HIT:     340702  MISS:       4356  HIT %:    98.7376  MISS %:     1.2624   MPKI: 0.08712
LLC WRITEBACK ACCESS:      98435  HIT:      98057  MISS:        378  HIT %:     99.616  MISS %:    0.38401   MPKI: 0.00756
LLC LOAD TRANSLATION ACCESS:       2245  HIT:       1916  MISS:        329  HIT %:    85.3452  MISS %:    14.6548   MPKI: 0.00658
LLC TRANSLATION FROM L1D PREFETCHER ACCESS:        301  HIT:        269  MISS:         32  HIT %:    89.3688  MISS %:    10.6312   MPKI: 0.00064
LLC PREFETCH  REQUESTED:          0  ISSUED:          0  USEFUL:        182  USELESS:       2810
LLC USEFUL LOAD PREFETCHES:        182 PREFETCH ISSUED TO LOWER LEVEL:       4356  ACCURACY: 4.17815
LLC TIMELY PREFETCHES:        182 LATE PREFETCHES: 0 DROPPED PREFETCHES: 0
LLC PREFETCHES SAME FILL-ORIGIN LEVEL: 0 DIFFERENT FILL-ORIGIN LEVEL: 0
LLC AVERAGE MISS LATENCY: 162.343 cycles
LLC RQ	ACCESS:     264208	FORWARD:          0	MERGED:          0	TO_CACHE:     264206
LLC WQ	ACCESS:      98435	FORWARD:          3	MERGED:          0	TO_CACHE:      98435
LLC PQ	ACCESS:     345059	FORWARD:          0	MERGED:          0	TO_CACHE:     345058

LLC Dense regions hint to LLC: 0

RAW hits: 927052
Loads Generated: 12230300
Loads sent to L1D: 11303247
Stores Generated: 6576955
Stores sent to L1D: 6576972
Major fault: 0 Minor fault: 2897
Allocated PAGES: 2897
I-Shadow cache 408 bytes
Touched + WorthPF tables 6144 bytes 
MMA filter 174 bytes 
FNL filter 272 bytes 
TOTAL PREFETCHER STORAGE SIZE: 25174 bytes
CPU 0 L1I next line prefetcher final stats

stream: 
stream:times selected: 68017
stream:pref_filled: 1029
stream:pref_useful: 245
stream:pref_late: 41
stream:misses: 73
stream:misses_by_poll: 0

CS: 
CS:times selected: 12075
CS:pref_filled: 3796
CS:pref_useful: 3032
CS:pref_late: 1275
CS:misses: 2674
CS:misses_by_poll: 42

CPLX: 
CPLX:times selected: 55817
CPLX:pref_filled: 897
CPLX:pref_useful: 27
CPLX:pref_late: 1
CPLX:misses: 582
CPLX:misses_by_poll: 0

NL_L1: 
NL:times selected: 997
NL:pref_filled: 0
NL:pref_useful: 0
NL:pref_late: 0
NL:misses: 0
NL:misses_by_poll: 0

total selections: 136906
total_filled: 5725
total_useful: 3305
total_late: 1371
total_polluted: 42
total_misses_after_warmup: 3360
conflicts: 14
Degree Incremented Times: 615
Degree Decremented Times: 746

L1 IP Table Write Accesses: 198216
L1 IP Table Read Accesses: 198202
L1 RST Write Accesses: 68017
L1 RST Read Accesses: 136027
L1 CSPT Write Accesses: 68017
L1 CSPT Read Accesses: 137027
L1 RR Filter Tag Write Accesses: 14991
L1 RR Filter Tag Read Accesses: 3962392
L1 IP Table Tag Write Accesses: 198217
L1 IP Table Tag Read Accesses: 198217
L1 RST Tag Write Accesses: 56
L1 RST Tag Read Accesses: 621797
L1 RR Filter Write Accesses: 0
L1 RR Filter Read Accesses: 163881
test: 8021
L2 IP Table Read Accesses: 1354056
L2 IP Table Write Accesses: 2686722
L2 IP Table Tag Read Accesses: 1345426
L2 IP Table Tag Write Accesses: 1345426

DRAM Statistics
 CHANNEL 0
 RQ ROW_BUFFER_HIT:      12568  ROW_BUFFER_MISS:      25562
 DBUS_CONGESTED:          7
 WQ ROW_BUFFER_HIT:       2683  ROW_BUFFER_MISS:      19028  FULL:          0

 AVG_CONGESTED_CYCLE: 3
 All warmup complete: 2
Channel 0 Bank busy for read cycles: 0
Channel 0 Bank busy for write cycles: 0
Channel 0
Rank 0
0banks busy for read cycles: 75183604
0banks busy for write cycles: 5042
1banks busy for read cycles: 1906006
1banks busy for write cycles: 699338
2banks busy for read cycles: 250173
2banks busy for write cycles: 242765
3banks busy for read cycles: 93805
3banks busy for write cycles: 163197
4banks busy for read cycles: 56428
4banks busy for write cycles: 122843
5banks busy for read cycles: 36539
5banks busy for write cycles: 113397
6banks busy for read cycles: 37795
6banks busy for write cycles: 107667
7banks busy for read cycles: 44047
7banks busy for write cycles: 104963
8banks busy for read cycles: 107467
8banks busy for write cycles: 147457

CPU 0 Branch Prediction Accuracy: 99.6798% MPKI: 0.58608 Average ROB Occupancy at Mispredict: 62.7078
Branch types
NOT_BRANCH: 40848109 81.6962%
BRANCH_DIRECT_JUMP: 548369 1.09674%
BRANCH_INDIRECT: 189803 0.379606%
BRANCH_CONDITIONAL: 6372728 12.7455%
BRANCH_DIRECT_CALL: 862206 1.72441%
BRANCH_INDIRECT_CALL: 158147 0.316294%
BRANCH_RETURN: 1020342 2.04068%
BRANCH_OTHER: 0 0%

DRAM PAGES: 1048576
Allocated PAGES: 2897
