
*** ChampSim Multicore Out-of-Order Simulator ***

Warmup Instructions: 50000000
Simulation Instructions: 50000000
Number of CPUs: 1
LLC sets: 2048
LLC ways: 16
Off-chip DRAM Size: 4096 MB Channels: 1 Width: 64-bit Data Rate: 6400 MT/s
CPU 0 runs ../IPC-traces//server_013.champsimtrace.xz
.xz
BTB has LRU replacement policy
ITLB has LRU replacement policy
DTLB has LRU replacement policy
STLB has LRU replacement policy
CPU 0 L1I next line prefetcher
L1I has LRU replacement policy
IP Table Entries: 64
L1D has LRU replacement policy
Initialize SRRIP state for L2C
Initialize DRRIP state for LLC
Heartbeat CPU 0 instructions: 10000000 cycles: 2763985 heartbeat IPC: 3.61796 cumulative IPC: 3.61796 (Simulation time: 0 hr 3 min 0 sec) 
Heartbeat CPU 0 instructions: 20000001 cycles: 5518579 heartbeat IPC: 3.6303 cumulative IPC: 3.62412 (Simulation time: 0 hr 6 min 1 sec) 
Heartbeat CPU 0 instructions: 30000002 cycles: 8274026 heartbeat IPC: 3.62918 cumulative IPC: 3.6258 (Simulation time: 0 hr 9 min 4 sec) 
Heartbeat CPU 0 instructions: 40000003 cycles: 11027992 heartbeat IPC: 3.63113 cumulative IPC: 3.62713 (Simulation time: 0 hr 12 min 6 sec) 
Heartbeat CPU 0 instructions: 50000000 cycles: 13783866 heartbeat IPC: 3.62861 cumulative IPC: 3.62743 (Simulation time: 0 hr 15 min 7 sec) 

Warmup complete CPU 0 instructions: 50000004 cycles: 13783867 (Simulation time: 0 hr 15 min 7 sec) 

Heartbeat CPU 0 instructions: 60000000 cycles: 28349267 heartbeat IPC: 0.686558 cumulative IPC: 0.686558 (Simulation time: 0 hr 18 min 32 sec) 
Heartbeat CPU 0 instructions: 70000003 cycles: 43108852 heartbeat IPC: 0.677526 cumulative IPC: 0.682012 (Simulation time: 0 hr 21 min 45 sec) 
Heartbeat CPU 0 instructions: 80000003 cycles: 57343617 heartbeat IPC: 0.702505 cumulative IPC: 0.688709 (Simulation time: 0 hr 24 min 57 sec) 
Heartbeat CPU 0 instructions: 90000003 cycles: 71731474 heartbeat IPC: 0.695031 cumulative IPC: 0.690279 (Simulation time: 0 hr 28 min 13 sec) 
Heartbeat CPU 0 instructions: 100000000 cycles: 86115519 heartbeat IPC: 0.695215 cumulative IPC: 0.69126 (Simulation time: 0 hr 31 min 21 sec) 
Finished CPU 0 instructions: 50000000 cycles: 72331653 cumulative IPC: 0.69126 (Simulation time: 0 hr 31 min 21 sec) 

ChampSim completed all CPUs

Region of Interest Statistics

CPU 0 cumulative IPC: 0.69126 instructions: 50000000 cycles: 72331653

CPU 0 Average Load ROB stall cycles: 1.92978e+07
CPU 0 Fraction of times ROB stalled by Loads: 38.5386
CPU 0 Percentage of Load stall cycles in Total stall cycles: 2.21324e+08
Issued all: 27718721
Issued LT all: 21586570
rob_not_full_when_issued_lt_all: 20291456
Issued LT one: 17215408
rob_not_full_when_issued_lt_one: 16088477
 Total stall cycles: 58958161
 Total load stall cycles: 130488772294177
Unique Load IPs: 32247
CPU 0 NUM of IPS identified critical: 77
CPU 0 Num of Load IPs stalling ROB: 0
Threshold modification factor: 0
Trouble in retire width: -nan
MaC = Marked as critical.
lt_50_percent_before_Mac: 17
gt_90_percent_before_Mac: 6
gt_75_percent_before_Mac: 9
gt_50_percent_before_Mac: 23
stall_proportion_bin_same_before_after: 0
stall_proportion_bin_lower_before_after: 0
stall_proportion_bin_upper_before_after: 0
average_stall_proportion_before: 0.0427197
average_stall_proportion_after: 0.041173
Critical_IP_Detector_Accuracy_70: 0
Critical_IP_Detector_Accuracy_80: 0
Critical_IP_Detector_Accuracy_90: 0
Critical_IP_Detector_Coverage_70: 0
Critical_IP_Detector_Coverage_80: 0
Critical_IP_Detector_Coverage_90: 0
stat_90_percent_critical_ip_stalls_freq: 32546
stat_90_percent_non_critical_ip_stalls_freq: 18446744073709519070
AVERAGE_ROB_Occupancy_90_Percent_Critical_IP_Stalls: 47.4656
AVERAGE_ROB_Occupancy_90_Percent_Non_Critical_IP_Stalls: 9.70074e-12
Critical_IP_ROB_Stalls_Bucket_0: 34371
Non-critical_IP_ROB_Stalls_Bucket_0: 1306033
Critical_IP_ROB_Stalls_Bucket_1: 2056
Non-critical_IP_ROB_Stalls_Bucket_1: 747070
Critical_IP_ROB_Stalls_Bucket_2: 619
Non-critical_IP_ROB_Stalls_Bucket_2: 279519
Critical_IP_ROB_Stalls_Bucket_3: 472
Non-critical_IP_ROB_Stalls_Bucket_3: 96723
Critical_IP_ROB_Stalls_Bucket_4: 363
Non-critical_IP_ROB_Stalls_Bucket_4: 48692
Critical_IP_ROB_Stalls_Bucket_5: 238
Non-critical_IP_ROB_Stalls_Bucket_5: 28230
Critical_IP_ROB_Stalls_Bucket_6: 413
Non-critical_IP_ROB_Stalls_Bucket_6: 61121
0 => IPs accounting for >50 percent of stalls, 1 => 55, 2 => 60, 3 => 65 and so on till 90.
percent50: inf num IPs:  1
percent55: inf num IPs: 1
percent60: inf num IPs: 1
percent65: inf num IPs: 1
percent70: inf num IPs: 1
percent75: inf num IPs: 1
percent80: inf num IPs: 1
percent85: inf num IPs: 1
percent90: inf num IPs: 1
Critical_ROB_Stalls_Percent_0_Bucket_0: 26192
Non-critical_ROB_Stalls_Percent_0_Bucket_0: 1314212
Critical_ROB_Stalls_Percent_0_Bucket_1: 6315
Non-critical_ROB_Stalls_Percent_0_Bucket_1: 742811
Critical_ROB_Stalls_Percent_0_Bucket_2: 14
Non-critical_ROB_Stalls_Percent_0_Bucket_2: 280124
Critical_ROB_Stalls_Percent_0_Bucket_3: 11
Non-critical_ROB_Stalls_Percent_0_Bucket_3: 97184
Critical_ROB_Stalls_Percent_0_Bucket_4: 12
Non-critical_ROB_Stalls_Percent_0_Bucket_4: 49043
Critical_ROB_Stalls_Percent_0_Bucket_5: 2
Non-critical_ROB_Stalls_Percent_0_Bucket_5: 28466
Critical_ROB_Stalls_Percent_0_Bucket_6: 0
Non-critical_ROB_Stalls_Percent_0_Bucket_6: 61534
Critical_ROB_Stalls_Percent_1_Bucket_0: 26192
Non-critical_ROB_Stalls_Percent_1_Bucket_0: 1314212
Critical_ROB_Stalls_Percent_1_Bucket_1: 6315
Non-critical_ROB_Stalls_Percent_1_Bucket_1: 742811
Critical_ROB_Stalls_Percent_1_Bucket_2: 14
Non-critical_ROB_Stalls_Percent_1_Bucket_2: 280124
Critical_ROB_Stalls_Percent_1_Bucket_3: 11
Non-critical_ROB_Stalls_Percent_1_Bucket_3: 97184
Critical_ROB_Stalls_Percent_1_Bucket_4: 12
Non-critical_ROB_Stalls_Percent_1_Bucket_4: 49043
Critical_ROB_Stalls_Percent_1_Bucket_5: 2
Non-critical_ROB_Stalls_Percent_1_Bucket_5: 28466
Critical_ROB_Stalls_Percent_1_Bucket_6: 0
Non-critical_ROB_Stalls_Percent_1_Bucket_6: 61534
Critical_ROB_Stalls_Percent_2_Bucket_0: 26192
Non-critical_ROB_Stalls_Percent_2_Bucket_0: 1314212
Critical_ROB_Stalls_Percent_2_Bucket_1: 6315
Non-critical_ROB_Stalls_Percent_2_Bucket_1: 742811
Critical_ROB_Stalls_Percent_2_Bucket_2: 14
Non-critical_ROB_Stalls_Percent_2_Bucket_2: 280124
Critical_ROB_Stalls_Percent_2_Bucket_3: 11
Non-critical_ROB_Stalls_Percent_2_Bucket_3: 97184
Critical_ROB_Stalls_Percent_2_Bucket_4: 12
Non-critical_ROB_Stalls_Percent_2_Bucket_4: 49043
Critical_ROB_Stalls_Percent_2_Bucket_5: 2
Non-critical_ROB_Stalls_Percent_2_Bucket_5: 28466
Critical_ROB_Stalls_Percent_2_Bucket_6: 0
Non-critical_ROB_Stalls_Percent_2_Bucket_6: 61534
Critical_ROB_Stalls_Percent_3_Bucket_0: 26192
Non-critical_ROB_Stalls_Percent_3_Bucket_0: 1314212
Critical_ROB_Stalls_Percent_3_Bucket_1: 6315
Non-critical_ROB_Stalls_Percent_3_Bucket_1: 742811
Critical_ROB_Stalls_Percent_3_Bucket_2: 14
Non-critical_ROB_Stalls_Percent_3_Bucket_2: 280124
Critical_ROB_Stalls_Percent_3_Bucket_3: 11
Non-critical_ROB_Stalls_Percent_3_Bucket_3: 97184
Critical_ROB_Stalls_Percent_3_Bucket_4: 12
Non-critical_ROB_Stalls_Percent_3_Bucket_4: 49043
Critical_ROB_Stalls_Percent_3_Bucket_5: 2
Non-critical_ROB_Stalls_Percent_3_Bucket_5: 28466
Critical_ROB_Stalls_Percent_3_Bucket_6: 0
Non-critical_ROB_Stalls_Percent_3_Bucket_6: 61534
Critical_ROB_Stalls_Percent_4_Bucket_0: 26192
Non-critical_ROB_Stalls_Percent_4_Bucket_0: 1314212
Critical_ROB_Stalls_Percent_4_Bucket_1: 6315
Non-critical_ROB_Stalls_Percent_4_Bucket_1: 742811
Critical_ROB_Stalls_Percent_4_Bucket_2: 14
Non-critical_ROB_Stalls_Percent_4_Bucket_2: 280124
Critical_ROB_Stalls_Percent_4_Bucket_3: 11
Non-critical_ROB_Stalls_Percent_4_Bucket_3: 97184
Critical_ROB_Stalls_Percent_4_Bucket_4: 12
Non-critical_ROB_Stalls_Percent_4_Bucket_4: 49043
Critical_ROB_Stalls_Percent_4_Bucket_5: 2
Non-critical_ROB_Stalls_Percent_4_Bucket_5: 28466
Critical_ROB_Stalls_Percent_4_Bucket_6: 0
Non-critical_ROB_Stalls_Percent_4_Bucket_6: 61534
Critical_ROB_Stalls_Percent_5_Bucket_0: 26192
Non-critical_ROB_Stalls_Percent_5_Bucket_0: 1314212
Critical_ROB_Stalls_Percent_5_Bucket_1: 6315
Non-critical_ROB_Stalls_Percent_5_Bucket_1: 742811
Critical_ROB_Stalls_Percent_5_Bucket_2: 14
Non-critical_ROB_Stalls_Percent_5_Bucket_2: 280124
Critical_ROB_Stalls_Percent_5_Bucket_3: 11
Non-critical_ROB_Stalls_Percent_5_Bucket_3: 97184
Critical_ROB_Stalls_Percent_5_Bucket_4: 12
Non-critical_ROB_Stalls_Percent_5_Bucket_4: 49043
Critical_ROB_Stalls_Percent_5_Bucket_5: 2
Non-critical_ROB_Stalls_Percent_5_Bucket_5: 28466
Critical_ROB_Stalls_Percent_5_Bucket_6: 0
Non-critical_ROB_Stalls_Percent_5_Bucket_6: 61534
Critical_ROB_Stalls_Percent_6_Bucket_0: 26192
Non-critical_ROB_Stalls_Percent_6_Bucket_0: 1314212
Critical_ROB_Stalls_Percent_6_Bucket_1: 6315
Non-critical_ROB_Stalls_Percent_6_Bucket_1: 742811
Critical_ROB_Stalls_Percent_6_Bucket_2: 14
Non-critical_ROB_Stalls_Percent_6_Bucket_2: 280124
Critical_ROB_Stalls_Percent_6_Bucket_3: 11
Non-critical_ROB_Stalls_Percent_6_Bucket_3: 97184
Critical_ROB_Stalls_Percent_6_Bucket_4: 12
Non-critical_ROB_Stalls_Percent_6_Bucket_4: 49043
Critical_ROB_Stalls_Percent_6_Bucket_5: 2
Non-critical_ROB_Stalls_Percent_6_Bucket_5: 28466
Critical_ROB_Stalls_Percent_6_Bucket_6: 0
Non-critical_ROB_Stalls_Percent_6_Bucket_6: 61534
Critical_ROB_Stalls_Percent_7_Bucket_0: 26192
Non-critical_ROB_Stalls_Percent_7_Bucket_0: 1314212
Critical_ROB_Stalls_Percent_7_Bucket_1: 6315
Non-critical_ROB_Stalls_Percent_7_Bucket_1: 742811
Critical_ROB_Stalls_Percent_7_Bucket_2: 14
Non-critical_ROB_Stalls_Percent_7_Bucket_2: 280124
Critical_ROB_Stalls_Percent_7_Bucket_3: 11
Non-critical_ROB_Stalls_Percent_7_Bucket_3: 97184
Critical_ROB_Stalls_Percent_7_Bucket_4: 12
Non-critical_ROB_Stalls_Percent_7_Bucket_4: 49043
Critical_ROB_Stalls_Percent_7_Bucket_5: 2
Non-critical_ROB_Stalls_Percent_7_Bucket_5: 28466
Critical_ROB_Stalls_Percent_7_Bucket_6: 0
Non-critical_ROB_Stalls_Percent_7_Bucket_6: 61534
Critical_ROB_Stalls_Percent_8_Bucket_0: 26192
Non-critical_ROB_Stalls_Percent_8_Bucket_0: 1314212
Critical_ROB_Stalls_Percent_8_Bucket_1: 6315
Non-critical_ROB_Stalls_Percent_8_Bucket_1: 742811
Critical_ROB_Stalls_Percent_8_Bucket_2: 14
Non-critical_ROB_Stalls_Percent_8_Bucket_2: 280124
Critical_ROB_Stalls_Percent_8_Bucket_3: 11
Non-critical_ROB_Stalls_Percent_8_Bucket_3: 97184
Critical_ROB_Stalls_Percent_8_Bucket_4: 12
Non-critical_ROB_Stalls_Percent_8_Bucket_4: 49043
Critical_ROB_Stalls_Percent_8_Bucket_5: 2
Non-critical_ROB_Stalls_Percent_8_Bucket_5: 28466
Critical_ROB_Stalls_Percent_8_Bucket_6: 0
Non-critical_ROB_Stalls_Percent_8_Bucket_6: 61534
Average ROB occupancy Load Stall Begin: 57.3997
Average ROB occupancy Load Stall End: 69.2623
Min ROB occupancy Load Stall Begin: 1
Max ROB occupancy Load Stall Begin: 352
Min ROB occupancy Load Stall End: 1
Max ROB occupancy Load Stall End: 352
Average ROB occupancy Critical Load Stall Begin: 19.9426
Average ROB occupancy Critical Load Stall End: 22.6741
Min ROB occupancy Critical Load Stall Begin: 2
Max ROB occupancy Critical Load Stall Begin: 352
Min ROB occupancy Critical Load Stall End: 2
Max ROB occupancy Critical Load Stall End: 352
 ROB Load Stall Begin Bucket Count 0: 1634538
 ROB Load Stall End Bucket Count 0: 1340404
 ROB Critical Load Stall Begin Bucket Count 0: 23174
 ROB Critical Load Stall End Bucket Count 0: 23030
 ROB Load Stall Begin Bucket Count 1: 569656
 ROB Load Stall End Bucket Count 1: 749126
 ROB Critical Load Stall Begin Bucket Count 1: 752
 ROB Critical Load Stall End Bucket Count 1: 640
 ROB Load Stall Begin Bucket Count 2: 214526
 ROB Load Stall End Bucket Count 2: 280138
 ROB Critical Load Stall Begin Bucket Count 2: 213
 ROB Critical Load Stall End Bucket Count 2: 233
 ROB Load Stall Begin Bucket Count 3: 71908
 ROB Load Stall End Bucket Count 3: 97195
 ROB Critical Load Stall Begin Bucket Count 3: 210
 ROB Critical Load Stall End Bucket Count 3: 221
 ROB Load Stall Begin Bucket Count 4: 38141
 ROB Load Stall End Bucket Count 4: 49055
 ROB Critical Load Stall Begin Bucket Count 4: 57
 ROB Critical Load Stall End Bucket Count 4: 191
 ROB Load Stall Begin Bucket Count 5: 23877
 ROB Load Stall End Bucket Count 5: 28468
 ROB Critical Load Stall Begin Bucket Count 5: 30
 ROB Critical Load Stall End Bucket Count 5: 119
 ROB Load Stall Begin Bucket Count 6: 53274
 ROB Load Stall End Bucket Count 6: 61534
 ROB Critical Load Stall Begin Bucket Count 6: 261
 ROB Critical Load Stall End Bucket Count 6: 267
PIST Tag Read Accesses: 0
PIST Read Accesses: 0
PIST Tag Write Accesses: 0
PIST Write Accesses: 0
Criticality detector called times: 0
Max global_stall_cycles_count: 0
Threshold Modified: 0 times, factor: 0
Sturdy critical IP cache stats: 
 Unused entries: 0
CIC Tag Read Accesses: 0
CIC Read Accesses: 0
CIC Tag Write Accesses: 0
CIC Write Accesses: 0
Wobbly critical IP cache stats: 
 Unused entries: 0
CIC Tag Read Accesses: 125231018
CIC Read Accesses: 0
CIC Tag Write Accesses: 54436
CIC Write Accesses: 0
ITLB TOTAL     ACCESS:    8970780  HIT:    8715419  MISS:     255361  HIT %:    97.1534  MISS %:    2.84659   MPKI: 5.10722
ITLB LOAD TRANSLATION ACCESS:    7644595  HIT:    7568405  MISS:      76190  HIT %:    99.0033  MISS %:   0.996652   MPKI: 1.5238
ITLB TRANSLATION FROM L1D PREFETCHER ACCESS:    1326185  HIT:    1147014  MISS:     179171  HIT %:    86.4897  MISS %:    13.5103   MPKI: 3.58342
ITLB PREFETCH  REQUESTED:          0  ISSUED:          0  USEFUL:     143260  USELESS:      35925
ITLB USEFUL LOAD PREFETCHES:     143260 PREFETCH ISSUED TO LOWER LEVEL:          0  ACCURACY: inf
ITLB TIMELY PREFETCHES:     143260 LATE PREFETCHES: 809 DROPPED PREFETCHES: 6537
ITLB PREFETCHES SAME FILL-ORIGIN LEVEL: 0 DIFFERENT FILL-ORIGIN LEVEL: 0
ITLB AVERAGE MISS LATENCY: 166452 cycles
ITLB RQ	ACCESS:   12518784	FORWARD:          0	MERGED:    3507719	TO_CACHE:    9011065

DTLB TOTAL     ACCESS:    9353658  HIT:    8697737  MISS:     655921  HIT %:    92.9875  MISS %:    7.01245   MPKI: 13.1184
DTLB LOAD TRANSLATION ACCESS:    9353658  HIT:    8697737  MISS:     655921  HIT %:    92.9875  MISS %:    7.01245   MPKI: 13.1184
DTLB PREFETCH  REQUESTED:          0  ISSUED:          0  USEFUL:          0  USELESS:          0
DTLB USEFUL LOAD PREFETCHES:          0 PREFETCH ISSUED TO LOWER LEVEL:          0  ACCURACY: -nan
DTLB TIMELY PREFETCHES:          0 LATE PREFETCHES: 0 DROPPED PREFETCHES: 0
DTLB PREFETCHES SAME FILL-ORIGIN LEVEL: 0 DIFFERENT FILL-ORIGIN LEVEL: 0
DTLB AVERAGE MISS LATENCY: 15.2454 cycles
DTLB RQ	ACCESS:   11868716	FORWARD:          0	MERGED:    2473188	TO_CACHE:    9395528

STLB TOTAL     ACCESS:     914487  HIT:     788611  MISS:     125876  HIT %:    86.2353  MISS %:    13.7647   MPKI: 2.51752
STLB LOAD TRANSLATION ACCESS:     731302  HIT:     634406  MISS:      96896  HIT %:    86.7502  MISS %:    13.2498   MPKI: 1.93792
STLB TRANSLATION FROM L1D PREFETCHER ACCESS:     183185  HIT:     154205  MISS:      28980  HIT %:    84.1799  MISS %:    15.8201   MPKI: 0.5796
STLB PREFETCH  REQUESTED:          0  ISSUED:          0  USEFUL:      15660  USELESS:      13324
STLB USEFUL LOAD PREFETCHES:      15660 PREFETCH ISSUED TO LOWER LEVEL:          0  ACCURACY: inf
STLB TIMELY PREFETCHES:      15660 LATE PREFETCHES: 8 DROPPED PREFETCHES: 6537
STLB PREFETCHES SAME FILL-ORIGIN LEVEL: 0 DIFFERENT FILL-ORIGIN LEVEL: 0
STLB AVERAGE MISS LATENCY: 46.8248 cycles
STLB RQ	ACCESS:     922150	FORWARD:          0	MERGED:       1117	TO_CACHE:     921033

STLB Hit, L1D data hit: 0
STLB Hit, L2C data hit: 0
STLB Hit, LLC data hit: 0
STLB Hit, LLC data miss: 0
STLB STLB hints to L2: 0
L1D TOTAL     ACCESS:   11713524  HIT:   11065550  MISS:     647974  HIT %:    94.4682  MISS %:    5.53185   MPKI: 12.9595
L1D LOAD      ACCESS:    6763927  HIT:    6206309  MISS:     557618  HIT %:     91.756  MISS %:      8.244   MPKI: 11.1524
L1D RFO       ACCESS:    4946403  HIT:    4857914  MISS:      88489  HIT %:     98.211  MISS %:    1.78896   MPKI: 1.76978
L1D PREFETCH  ACCESS:       3194  HIT:       1327  MISS:       1867  HIT %:    41.5466  MISS %:    58.4534   MPKI: 0.03734
L1D PREFETCH  REQUESTED:       8684  ISSUED:       8682  USEFUL:        961  USELESS:        924
L1D USEFUL LOAD PREFETCHES:        961 PREFETCH ISSUED TO LOWER LEVEL:       2313  ACCURACY: 41.5478
L1D TIMELY PREFETCHES:        961 LATE PREFETCHES: 445 DROPPED PREFETCHES: 0
L1D PREFETCHES SAME FILL-ORIGIN LEVEL: 2313 DIFFERENT FILL-ORIGIN LEVEL: 0
L1D AVERAGE MISS LATENCY: 29158.7 cycles
L1D RQ	ACCESS:   10425162	FORWARD:          0	MERGED:    3533828	TO_CACHE:    6804342
L1D WQ	ACCESS:    5191026	FORWARD:      87014	MERGED:     126652	TO_CACHE:    5064374
L1D PQ	ACCESS:       4352	FORWARD:          0	MERGED:          0	TO_CACHE:       4330

L1D UNIQUE REGIONS ACCESSED: 0
L1D REGIONS CONFLICTS: 0
L1D Cross Page Prefetch Requests: 0
L1D Same Page Prefetch Requests: 95287
L1D ROI Sum of L1D PQ occupancy: 58557
L1D PREFETCHES PUSHED FROM L2C: 0
L1I TOTAL     ACCESS:   12352986  HIT:   10235243  MISS:    2117743  HIT %:    82.8564  MISS %:    17.1436   MPKI: 42.3549
L1I LOAD      ACCESS:    9394117  HIT:    9117924  MISS:     276193  HIT %:    97.0599  MISS %:    2.94006   MPKI: 5.52386
L1I PREFETCH  ACCESS:    2958869  HIT:    1117319  MISS:    1841550  HIT %:    37.7617  MISS %:    62.2383   MPKI: 36.831
L1I PREFETCH  REQUESTED:    3193774  ISSUED:    3185446  USEFUL:    1220691  USELESS:     620906
L1I USEFUL LOAD PREFETCHES:    1220691 PREFETCH ISSUED TO LOWER LEVEL:    1877170  ACCURACY: 65.0283
L1I TIMELY PREFETCHES:    1220691 LATE PREFETCHES: 35620 DROPPED PREFETCHES: 21568
L1I PREFETCHES SAME FILL-ORIGIN LEVEL: 1877170 DIFFERENT FILL-ORIGIN LEVEL: 0
L1I AVERAGE MISS LATENCY: 842413 cycles
L1I RQ	ACCESS:   13660319	FORWARD:          0	MERGED:    4237651	TO_CACHE:    9422668
L1I PQ	ACCESS:    3185446	FORWARD:          0	MERGED:      89330	TO_CACHE:    3096116

BTB TOTAL     ACCESS:    4435957  HIT:    3610044  MISS:     825913  HIT %:    81.3814  MISS %:    18.6186   MPKI: 16.5183
BTB BRANCH_DIRECT_JUMP	ACCESS:     463697  HIT:     397748  MISS:      65949
BTB BRANCH_INDIRECT	ACCESS:     146542  HIT:     112914  MISS:      33628
BTB BRANCH_CONDITIONAL	ACCESS:    2131255  HIT:    1856336  MISS:     274919
BTB BRANCH_DIRECT_CALL	ACCESS:     665004  HIT:     539799  MISS:     125205
BTB BRANCH_INDIRECT_CALL	ACCESS:     165150  HIT:     152297  MISS:      12853
BTB BRANCH_RETURN	ACCESS:     864309  HIT:     550950  MISS:     313359
BTB BRANCH_OTHER ACCESS:          0  HIT:          0  MISS:          0

L2C TOTAL     ACCESS:    3193637  HIT:    1950937  MISS:    1242700  HIT %:    61.0883  MISS %:    38.9117   MPKI: 24.854
L2C LOAD      ACCESS:     797719  HIT:     371037  MISS:     426682  HIT %:    46.5122  MISS %:    53.4878   MPKI: 8.53364
L2C DATA LOAD MPKI: 6.56302
L2C INSTRUCTION LOAD MPKI: 1.97062
L2C RFO       ACCESS:      88479  HIT:      42119  MISS:      46360  HIT %:    47.6034  MISS %:    52.3966   MPKI: 0.9272
L2C PREFETCH  ACCESS:    1879475  HIT:    1197944  MISS:     681531  HIT %:    63.7382  MISS %:    36.2618   MPKI: 13.6306
L2C DATA PREFETCH MPKI: 0.04218
L2C INSTRUCTION PREFETCH MPKI: 13.5884
L2C WRITEBACK ACCESS:     256090  HIT:     233696  MISS:      22394  HIT %:    91.2554  MISS %:    8.74458   MPKI: 0.44788
L2C LOAD TRANSLATION ACCESS:     127470  HIT:      73369  MISS:      54101  HIT %:    57.5579  MISS %:    42.4421   MPKI: 1.08202
L2C TRANSLATION FROM L1D PREFETCHER ACCESS:      44404  HIT:      32772  MISS:      11632  HIT %:    73.8042  MISS %:    26.1958   MPKI: 0.23264
L2C PREFETCH  REQUESTED:          0  ISSUED:          0  USEFUL:      18654  USELESS:     675126
L2C USEFUL LOAD PREFETCHES:      18654 PREFETCH ISSUED TO LOWER LEVEL:     681531  ACCURACY: 2.73707
L2C TIMELY PREFETCHES:      18654 LATE PREFETCHES: 0 DROPPED PREFETCHES: 0
L2C PREFETCHES SAME FILL-ORIGIN LEVEL: 0 DIFFERENT FILL-ORIGIN LEVEL: 0
L2C AVERAGE MISS LATENCY: 39.4224 cycles
L2C RQ	ACCESS:    1058108	FORWARD:          0	MERGED:          0	TO_CACHE:    1058072
L2C WQ	ACCESS:     256090	FORWARD:         36	MERGED:          0	TO_CACHE:     256090
L2C PQ	ACCESS:    1879483	FORWARD:          0	MERGED:          0	TO_CACHE:    1879483

L2C Instructions Evicting Data 249838
L2C Translations Evicting Data 21126
L2C Data Evicting Data 120579
L2C Instructions Evicting Instructions 485858
L2C Translations Evicting Instructions 41838
L2C Data Evicting Instructions 236538
L2C Instructions Evicting Translations 42257
L2C Translations Evicting Translations 2769
L2C Data Evicting Translations 19503
L2C Dense regions hint from L2: 0
PSCL5 TOTAL     ACCESS:     132413  HIT:     132413  MISS:          0  HIT %:        100  MISS %:          0   MPKI: 0
PSCL5 LOAD TRANSLATION ACCESS:      96888  HIT:      96888  MISS:          0  HIT %:        100  MISS %:          0   MPKI: 0
PSCL5 TRANSLATION FROM L1D PREFETCHER ACCESS:      35525  HIT:      35525  MISS:          0  HIT %:        100  MISS %:          0   MPKI: 0
PSCL5 PREFETCH  REQUESTED:          0  ISSUED:          0  USEFUL:          0  USELESS:          0
PSCL5 USEFUL LOAD PREFETCHES:          0 PREFETCH ISSUED TO LOWER LEVEL:          0  ACCURACY: -nan
PSCL5 TIMELY PREFETCHES:          0 LATE PREFETCHES: 0 DROPPED PREFETCHES: 0
PSCL5 PREFETCHES SAME FILL-ORIGIN LEVEL: 0 DIFFERENT FILL-ORIGIN LEVEL: 0

PSCL4 TOTAL     ACCESS:     127930  HIT:     127571  MISS:        359  HIT %:    99.7194  MISS %:   0.280622   MPKI: 0.00718
PSCL4 LOAD TRANSLATION ACCESS:      93994  HIT:      93635  MISS:        359  HIT %:    99.6181  MISS %:   0.381939   MPKI: 0.00718
PSCL4 TRANSLATION FROM L1D PREFETCHER ACCESS:      33936  HIT:      33936  MISS:          0  HIT %:        100  MISS %:          0   MPKI: 0
PSCL4 PREFETCH  REQUESTED:          0  ISSUED:          0  USEFUL:          0  USELESS:          0
PSCL4 USEFUL LOAD PREFETCHES:          0 PREFETCH ISSUED TO LOWER LEVEL:          0  ACCURACY: -nan
PSCL4 TIMELY PREFETCHES:          0 LATE PREFETCHES: 0 DROPPED PREFETCHES: 0
PSCL4 PREFETCHES SAME FILL-ORIGIN LEVEL: 0 DIFFERENT FILL-ORIGIN LEVEL: 0

PSCL3 TOTAL     ACCESS:     130717  HIT:     129672  MISS:       1045  HIT %:    99.2006  MISS %:   0.799437   MPKI: 0.0209
PSCL3 LOAD TRANSLATION ACCESS:      96540  HIT:      95495  MISS:       1045  HIT %:    98.9175  MISS %:    1.08245   MPKI: 0.0209
PSCL3 TRANSLATION FROM L1D PREFETCHER ACCESS:      34177  HIT:      34177  MISS:          0  HIT %:        100  MISS %:          0   MPKI: 0
PSCL3 PREFETCH  REQUESTED:          0  ISSUED:          0  USEFUL:          0  USELESS:          0
PSCL3 USEFUL LOAD PREFETCHES:          0 PREFETCH ISSUED TO LOWER LEVEL:          0  ACCURACY: -nan
PSCL3 TIMELY PREFETCHES:          0 LATE PREFETCHES: 0 DROPPED PREFETCHES: 0
PSCL3 PREFETCHES SAME FILL-ORIGIN LEVEL: 0 DIFFERENT FILL-ORIGIN LEVEL: 0

PSCL2 TOTAL     ACCESS:     128724  HIT:      95414  MISS:      33310  HIT %:    74.1229  MISS %:    25.8771   MPKI: 0.6662
PSCL2 LOAD TRANSLATION ACCESS:     100734  HIT:      67424  MISS:      33310  HIT %:    66.9327  MISS %:    33.0673   MPKI: 0.6662
PSCL2 TRANSLATION FROM L1D PREFETCHER ACCESS:      27990  HIT:      27990  MISS:          0  HIT %:        100  MISS %:          0   MPKI: 0
PSCL2 PREFETCH  REQUESTED:          0  ISSUED:          0  USEFUL:          0  USELESS:          0
PSCL2 USEFUL LOAD PREFETCHES:          0 PREFETCH ISSUED TO LOWER LEVEL:          0  ACCURACY: -nan
PSCL2 TIMELY PREFETCHES:          0 LATE PREFETCHES: 0 DROPPED PREFETCHES: 0
PSCL2 PREFETCHES SAME FILL-ORIGIN LEVEL: 0 DIFFERENT FILL-ORIGIN LEVEL: 0

LLC TOTAL     ACCESS:    1351558  HIT:    1272914  MISS:      78644  HIT %:    94.1812  MISS %:    5.81877   MPKI: 1.57288
LLC LOAD      ACCESS:     426678  HIT:     367343  MISS:      59335  HIT %:    86.0937  MISS %:    13.9063   MPKI: 1.1867
LLC RFO       ACCESS:      46360  HIT:      33918  MISS:      12442  HIT %:    73.1622  MISS %:    26.8378   MPKI: 0.24884
LLC PREFETCH  ACCESS:     681531  HIT:     676704  MISS:       4827  HIT %:    99.2917  MISS %:   0.708258   MPKI: 0.09654
LLC WRITEBACK ACCESS:     131256  HIT:     130694  MISS:        562  HIT %:    99.5718  MISS %:   0.428171   MPKI: 0.01124
LLC LOAD TRANSLATION ACCESS:      54101  HIT:      52679  MISS:       1422  HIT %:    97.3716  MISS %:    2.62842   MPKI: 0.02844
LLC TRANSLATION FROM L1D PREFETCHER ACCESS:      11632  HIT:      11576  MISS:         56  HIT %:    99.5186  MISS %:   0.481431   MPKI: 0.00112
LLC PREFETCH  REQUESTED:          0  ISSUED:          0  USEFUL:        614  USELESS:       5650
LLC USEFUL LOAD PREFETCHES:        614 PREFETCH ISSUED TO LOWER LEVEL:       4827  ACCURACY: 12.7201
LLC TIMELY PREFETCHES:        614 LATE PREFETCHES: 0 DROPPED PREFETCHES: 0
LLC PREFETCHES SAME FILL-ORIGIN LEVEL: 0 DIFFERENT FILL-ORIGIN LEVEL: 0
LLC AVERAGE MISS LATENCY: 156.449 cycles
LLC RQ	ACCESS:     538775	FORWARD:          0	MERGED:          0	TO_CACHE:     538771
LLC WQ	ACCESS:     131256	FORWARD:          4	MERGED:          0	TO_CACHE:     131256
LLC PQ	ACCESS:     681531	FORWARD:          0	MERGED:          0	TO_CACHE:     681531

LLC Dense regions hint to LLC: 0

RAW hits: 1033700
Loads Generated: 11458862
Loads sent to L1D: 10425162
Stores Generated: 5191012
Stores sent to L1D: 5191026
Major fault: 0 Minor fault: 6553
Allocated PAGES: 6553
I-Shadow cache 408 bytes
Touched + WorthPF tables 6144 bytes 
MMA filter 174 bytes 
FNL filter 272 bytes 
TOTAL PREFETCHER STORAGE SIZE: 25174 bytes
CPU 0 L1I next line prefetcher final stats

stream: 
stream:times selected: 138621
stream:pref_filled: 27943
stream:pref_useful: 7499
stream:pref_late: 1235
stream:misses: 1329
stream:misses_by_poll: 0

CS: 
CS:times selected: 16839
CS:pref_filled: 14177
CS:pref_useful: 12641
CS:pref_late: 935
CS:misses: 2265
CS:misses_by_poll: 27

CPLX: 
CPLX:times selected: 120712
CPLX:pref_filled: 7724
CPLX:pref_useful: 1085
CPLX:pref_late: 227
CPLX:misses: 8902
CPLX:misses_by_poll: 1

NL_L1: 
NL:times selected: 775
NL:pref_filled: 354
NL:pref_useful: 29
NL:pref_late: 9
NL:misses: 71
NL:misses_by_poll: 0

total selections: 276947
total_filled: 1867
total_useful: 961
total_late: 2426
total_polluted: 28
total_misses_after_warmup: 1754
conflicts: 217
Degree Incremented Times: 12529
Degree Decremented Times: 40007

L1 IP Table Write Accesses: 39280
L1 IP Table Read Accesses: 39063
L1 RST Write Accesses: 20937
L1 RST Read Accesses: 41874
L1 CSPT Write Accesses: 20937
L1 CSPT Read Accesses: 40763
L1 RR Filter Tag Write Accesses: 4354
L1 RR Filter Tag Read Accesses: 899600
L1 IP Table Tag Write Accesses: 39851
L1 IP Table Tag Read Accesses: 39851
L1 RST Tag Write Accesses: 0
L1 RST Tag Read Accesses: 261849
L1 RR Filter Write Accesses: 0
L1 RR Filter Read Accesses: 39234
test: 36563

DRAM Statistics
 CHANNEL 0
 RQ ROW_BUFFER_HIT:      11701  ROW_BUFFER_MISS:      66381
 DBUS_CONGESTED:         50
 WQ ROW_BUFFER_HIT:      11240  ROW_BUFFER_MISS:      45826  FULL:          0

 AVG_CONGESTED_CYCLE: 4
 All warmup complete: 2
Channel 0 Bank busy for read cycles: 0
Channel 0 Bank busy for write cycles: 0
Channel 0
Rank 0
0banks busy for read cycles: 58324269
0banks busy for write cycles: 26537
1banks busy for read cycles: 6363247
1banks busy for write cycles: 3669529
2banks busy for read cycles: 1306601
2banks busy for write cycles: 1197019
3banks busy for read cycles: 254276
3banks busy for write cycles: 416385
4banks busy for read cycles: 82713
4banks busy for write cycles: 204527
5banks busy for read cycles: 35390
5banks busy for write cycles: 132397
6banks busy for read cycles: 23583
6banks busy for write cycles: 88510
7banks busy for read cycles: 11403
7banks busy for write cycles: 83233
8banks busy for read cycles: 9261
8banks busy for write cycles: 102774

CPU 0 Branch Prediction Accuracy: 99.4114% MPKI: 1.0933 Average ROB Occupancy at Mispredict: 61.675
Branch types
NOT_BRANCH: 40713077 81.4262%
BRANCH_DIRECT_JUMP: 463697 0.927394%
BRANCH_INDIRECT: 146542 0.293084%
BRANCH_CONDITIONAL: 6981924 13.9638%
BRANCH_DIRECT_CALL: 665004 1.33001%
BRANCH_INDIRECT_CALL: 165150 0.3303%
BRANCH_RETURN: 864309 1.72862%
BRANCH_OTHER: 0 0%

DRAM PAGES: 1048576
Allocated PAGES: 6553
