
*** ChampSim Multicore Out-of-Order Simulator ***

Warmup Instructions: 50000000
Simulation Instructions: 50000000
Number of CPUs: 1
LLC sets: 2048
LLC ways: 16
Off-chip DRAM Size: 4096 MB Channels: 1 Width: 64-bit Data Rate: 6400 MT/s
CPU 0 runs ../IPC-traces//server_009.champsimtrace.xz
.xz
NUM_OF_IPS_IN_CRITICAL_IP_TRAINING: 64
NUM_OF_CRITICAL_IP_TRAINING_TABLE_WAYS: 2
NUM_OF_CRITICAL_IP_TRAINING_TABLE_SETS: 32
WOBBLY_CRITICAL_IP_CACHE_SETS: 32
WOBBLY_CRITICAL_IP_CACHE_WAYS: 4
BTB has LRU replacement policy
ITLB has LRU replacement policy
DTLB has LRU replacement policy
STLB has LRU replacement policy
CPU 0 L1I next line prefetcher
L1I has LRU replacement policy
IP Table Entries: 64
L1D has LRU replacement policy
Initialize SRRIP state for L2C
Initialize DRRIP state for LLC
Heartbeat CPU 0 instructions: 10000001 cycles: 2764572 heartbeat IPC: 3.6172 cumulative IPC: 3.6172 (Simulation time: 0 hr 4 min 36 sec) 
Heartbeat CPU 0 instructions: 20000002 cycles: 5521274 heartbeat IPC: 3.62752 cumulative IPC: 3.62235 (Simulation time: 0 hr 8 min 56 sec) 
Heartbeat CPU 0 instructions: 30000001 cycles: 8280511 heartbeat IPC: 3.62419 cumulative IPC: 3.62296 (Simulation time: 0 hr 12 min 59 sec) 
Heartbeat CPU 0 instructions: 40000003 cycles: 11043315 heartbeat IPC: 3.61951 cumulative IPC: 3.6221 (Simulation time: 0 hr 16 min 41 sec) 
Heartbeat CPU 0 instructions: 50000003 cycles: 13829321 heartbeat IPC: 3.58937 cumulative IPC: 3.61551 (Simulation time: 0 hr 20 min 13 sec) 

Warmup complete CPU 0 instructions: 50000003 cycles: 13829321 (Simulation time: 0 hr 20 min 13 sec) 

% increase in all ip prefetch 405.568
% increase in all ip prefetch -0.0409592
Heartbeat CPU 0 instructions: 60000001 cycles: 35708983 heartbeat IPC: 0.457045 cumulative IPC: 0.457045 (Simulation time: 0 hr 24 min 55 sec) 
Heartbeat CPU 0 instructions: 70000001 cycles: 62856639 heartbeat IPC: 0.368356 cumulative IPC: 0.407936 (Simulation time: 0 hr 30 min 8 sec) 
Heartbeat CPU 0 instructions: 80000000 cycles: 76967566 heartbeat IPC: 0.708671 cumulative IPC: 0.475148 (Simulation time: 0 hr 33 min 23 sec) 
Heartbeat CPU 0 instructions: 90000001 cycles: 91260384 heartbeat IPC: 0.699652 cumulative IPC: 0.516589 (Simulation time: 0 hr 36 min 40 sec) 
Heartbeat CPU 0 instructions: 100000003 cycles: 105351148 heartbeat IPC: 0.709685 cumulative IPC: 0.546318 (Simulation time: 0 hr 41 min 19 sec) 
Finished CPU 0 instructions: 50000000 cycles: 91521827 cumulative IPC: 0.546318 (Simulation time: 0 hr 41 min 19 sec) 

ChampSim completed all CPUs

Region of Interest Statistics

CPU 0 cumulative IPC: 0.546318 instructions: 50000000 cycles: 91521827

CPU 0 Average Load ROB stall cycles: 2.9279e+07
CPU 0 Fraction of times ROB stalled by Loads: 51.4844
CPU 0 Percentage of Load stall cycles in Total stall cycles: 2.83864e+08
Issued all: 35038090
Issued LT all: 29486732
rob_not_full_when_issued_lt_all: 21784072
Issued LT one: 23651326
rob_not_full_when_issued_lt_one: 16471755
 Total stall cycles: 77662468
 Total load stall cycles: 220456130681452
CPU 0 NUM of IPS identified critical: 0
CPU 0 Num of Load IPs stalling ROB: 24713
Threshold modification factor: -1
Max PIST entries: 64
Min PIST entries: 0
Avg PIST entries: 31.72
Trouble in retire width: 0.924821
MaC = Marked as critical.
lt_50_percent_before_Mac: 0
gt_90_percent_before_Mac: 0
gt_75_percent_before_Mac: 0
gt_50_percent_before_Mac: 0
stall_proportion_bin_same_before_after: 0
stall_proportion_bin_lower_before_after: 0
stall_proportion_bin_upper_before_after: 0
average_stall_proportion_before: -nan
average_stall_proportion_after: -nan
Critical IP stalls, total frequency: 0
Non-critical IP stalls, total frequency: 3876515
Total Freq all stalling IPs: 3876515
stat_90_percent_critical_ip_stalls_freq: 3488918
stat_90_percent_non_critical_ip_stalls_freq: 387597
Critical_IP_ROB_Stalls_Bucket_0: 0
Non-critical_IP_ROB_Stalls_Bucket_0: 1169375
Critical_IP_ROB_Stalls_Bucket_1: 0
Non-critical_IP_ROB_Stalls_Bucket_1: 808382
Critical_IP_ROB_Stalls_Bucket_2: 0
Non-critical_IP_ROB_Stalls_Bucket_2: 444706
Critical_IP_ROB_Stalls_Bucket_3: 0
Non-critical_IP_ROB_Stalls_Bucket_3: 313647
Critical_IP_ROB_Stalls_Bucket_4: 0
Non-critical_IP_ROB_Stalls_Bucket_4: 255743
Critical_IP_ROB_Stalls_Bucket_5: 0
Non-critical_IP_ROB_Stalls_Bucket_5: 268302
Critical_IP_ROB_Stalls_Bucket_6: 0
Non-critical_IP_ROB_Stalls_Bucket_6: 616360
0 => IPs accounting for >50 percent of stalls, 1 => 55, 2 => 60, 3 => 65 and so on till 90.
percent50: 50.1081 num IPs:  36
percent55: 55.0687 num IPs: 57
percent60: 60.091 num IPs: 82
percent65: 65.0828 num IPs: 123
percent70: 70.0109 num IPs: 218
percent75: 75.0021 num IPs: 433
percent80: 80.0064 num IPs: 776
percent85: 85.0026 num IPs: 1428
percent90: 90.0017 num IPs: 2922
Critical_ROB_Stalls_Percent_0_Bucket_0: 215873
Non-critical_ROB_Stalls_Percent_0_Bucket_0: 953502
Critical_ROB_Stalls_Percent_0_Bucket_1: 201516
Non-critical_ROB_Stalls_Percent_0_Bucket_1: 606866
Critical_ROB_Stalls_Percent_0_Bucket_2: 243107
Non-critical_ROB_Stalls_Percent_0_Bucket_2: 201599
Critical_ROB_Stalls_Percent_0_Bucket_3: 241645
Non-critical_ROB_Stalls_Percent_0_Bucket_3: 72002
Critical_ROB_Stalls_Percent_0_Bucket_4: 216965
Non-critical_ROB_Stalls_Percent_0_Bucket_4: 38778
Critical_ROB_Stalls_Percent_0_Bucket_5: 244841
Non-critical_ROB_Stalls_Percent_0_Bucket_5: 23461
Critical_ROB_Stalls_Percent_0_Bucket_6: 578500
Non-critical_ROB_Stalls_Percent_0_Bucket_6: 37860
Critical_ROB_Stalls_Percent_1_Bucket_0: 296746
Non-critical_ROB_Stalls_Percent_1_Bucket_0: 872629
Critical_ROB_Stalls_Percent_1_Bucket_1: 293049
Non-critical_ROB_Stalls_Percent_1_Bucket_1: 515333
Critical_ROB_Stalls_Percent_1_Bucket_2: 262451
Non-critical_ROB_Stalls_Percent_1_Bucket_2: 182255
Critical_ROB_Stalls_Percent_1_Bucket_3: 241990
Non-critical_ROB_Stalls_Percent_1_Bucket_3: 71657
Critical_ROB_Stalls_Percent_1_Bucket_4: 217163
Non-critical_ROB_Stalls_Percent_1_Bucket_4: 38580
Critical_ROB_Stalls_Percent_1_Bucket_5: 244849
Non-critical_ROB_Stalls_Percent_1_Bucket_5: 23453
Critical_ROB_Stalls_Percent_1_Bucket_6: 578500
Non-critical_ROB_Stalls_Percent_1_Bucket_6: 37860
Critical_ROB_Stalls_Percent_2_Bucket_0: 410249
Non-critical_ROB_Stalls_Percent_2_Bucket_0: 759126
Critical_ROB_Stalls_Percent_2_Bucket_1: 351764
Non-critical_ROB_Stalls_Percent_2_Bucket_1: 456618
Critical_ROB_Stalls_Percent_2_Bucket_2: 277217
Non-critical_ROB_Stalls_Percent_2_Bucket_2: 167489
Critical_ROB_Stalls_Percent_2_Bucket_3: 244064
Non-critical_ROB_Stalls_Percent_2_Bucket_3: 69583
Critical_ROB_Stalls_Percent_2_Bucket_4: 218427
Non-critical_ROB_Stalls_Percent_2_Bucket_4: 37316
Critical_ROB_Stalls_Percent_2_Bucket_5: 245969
Non-critical_ROB_Stalls_Percent_2_Bucket_5: 22333
Critical_ROB_Stalls_Percent_2_Bucket_6: 581747
Non-critical_ROB_Stalls_Percent_2_Bucket_6: 34613
Critical_ROB_Stalls_Percent_3_Bucket_0: 466421
Non-critical_ROB_Stalls_Percent_3_Bucket_0: 702954
Critical_ROB_Stalls_Percent_3_Bucket_1: 443942
Non-critical_ROB_Stalls_Percent_3_Bucket_1: 364440
Critical_ROB_Stalls_Percent_3_Bucket_2: 305000
Non-critical_ROB_Stalls_Percent_3_Bucket_2: 139706
Critical_ROB_Stalls_Percent_3_Bucket_3: 253110
Non-critical_ROB_Stalls_Percent_3_Bucket_3: 60537
Critical_ROB_Stalls_Percent_3_Bucket_4: 221911
Non-critical_ROB_Stalls_Percent_3_Bucket_4: 33832
Critical_ROB_Stalls_Percent_3_Bucket_5: 247933
Non-critical_ROB_Stalls_Percent_3_Bucket_5: 20369
Critical_ROB_Stalls_Percent_3_Bucket_6: 584627
Non-critical_ROB_Stalls_Percent_3_Bucket_6: 31733
Critical_ROB_Stalls_Percent_4_Bucket_0: 546577
Non-critical_ROB_Stalls_Percent_4_Bucket_0: 622798
Critical_ROB_Stalls_Percent_4_Bucket_1: 505886
Non-critical_ROB_Stalls_Percent_4_Bucket_1: 302496
Critical_ROB_Stalls_Percent_4_Bucket_2: 330045
Non-critical_ROB_Stalls_Percent_4_Bucket_2: 114661
Critical_ROB_Stalls_Percent_4_Bucket_3: 261580
Non-critical_ROB_Stalls_Percent_4_Bucket_3: 52067
Critical_ROB_Stalls_Percent_4_Bucket_4: 227368
Non-critical_ROB_Stalls_Percent_4_Bucket_4: 28375
Critical_ROB_Stalls_Percent_4_Bucket_5: 250434
Non-critical_ROB_Stalls_Percent_4_Bucket_5: 17868
Critical_ROB_Stalls_Percent_4_Bucket_6: 592094
Non-critical_ROB_Stalls_Percent_4_Bucket_6: 24266
Critical_ROB_Stalls_Percent_5_Bucket_0: 627704
Non-critical_ROB_Stalls_Percent_5_Bucket_0: 541671
Critical_ROB_Stalls_Percent_5_Bucket_1: 568892
Non-critical_ROB_Stalls_Percent_5_Bucket_1: 239490
Critical_ROB_Stalls_Percent_5_Bucket_2: 354972
Non-critical_ROB_Stalls_Percent_5_Bucket_2: 89734
Critical_ROB_Stalls_Percent_5_Bucket_3: 271944
Non-critical_ROB_Stalls_Percent_5_Bucket_3: 41703
Critical_ROB_Stalls_Percent_5_Bucket_4: 232510
Non-critical_ROB_Stalls_Percent_5_Bucket_4: 23233
Critical_ROB_Stalls_Percent_5_Bucket_5: 254345
Non-critical_ROB_Stalls_Percent_5_Bucket_5: 13957
Critical_ROB_Stalls_Percent_5_Bucket_6: 597098
Non-critical_ROB_Stalls_Percent_5_Bucket_6: 19262
Critical_ROB_Stalls_Percent_6_Bucket_0: 716462
Non-critical_ROB_Stalls_Percent_6_Bucket_0: 452913
Critical_ROB_Stalls_Percent_6_Bucket_1: 636739
Non-critical_ROB_Stalls_Percent_6_Bucket_1: 171643
Critical_ROB_Stalls_Percent_6_Bucket_2: 372704
Non-critical_ROB_Stalls_Percent_6_Bucket_2: 72002
Critical_ROB_Stalls_Percent_6_Bucket_3: 279172
Non-critical_ROB_Stalls_Percent_6_Bucket_3: 34475
Critical_ROB_Stalls_Percent_6_Bucket_4: 237614
Non-critical_ROB_Stalls_Percent_6_Bucket_4: 18129
Critical_ROB_Stalls_Percent_6_Bucket_5: 257891
Non-critical_ROB_Stalls_Percent_6_Bucket_5: 10411
Critical_ROB_Stalls_Percent_6_Bucket_6: 600875
Non-critical_ROB_Stalls_Percent_6_Bucket_6: 15485
Critical_ROB_Stalls_Percent_7_Bucket_0: 823369
Non-critical_ROB_Stalls_Percent_7_Bucket_0: 346006
Critical_ROB_Stalls_Percent_7_Bucket_1: 687060
Non-critical_ROB_Stalls_Percent_7_Bucket_1: 121322
Critical_ROB_Stalls_Percent_7_Bucket_2: 390849
Non-critical_ROB_Stalls_Percent_7_Bucket_2: 53857
Critical_ROB_Stalls_Percent_7_Bucket_3: 287334
Non-critical_ROB_Stalls_Percent_7_Bucket_3: 26313
Critical_ROB_Stalls_Percent_7_Bucket_4: 241838
Non-critical_ROB_Stalls_Percent_7_Bucket_4: 13905
Critical_ROB_Stalls_Percent_7_Bucket_5: 261210
Non-critical_ROB_Stalls_Percent_7_Bucket_5: 7092
Critical_ROB_Stalls_Percent_7_Bucket_6: 603481
Non-critical_ROB_Stalls_Percent_7_Bucket_6: 12879
Critical_ROB_Stalls_Percent_8_Bucket_0: 928653
Non-critical_ROB_Stalls_Percent_8_Bucket_0: 240722
Critical_ROB_Stalls_Percent_8_Bucket_1: 735403
Non-critical_ROB_Stalls_Percent_8_Bucket_1: 72979
Critical_ROB_Stalls_Percent_8_Bucket_2: 410246
Non-critical_ROB_Stalls_Percent_8_Bucket_2: 34460
Critical_ROB_Stalls_Percent_8_Bucket_3: 296370
Non-critical_ROB_Stalls_Percent_8_Bucket_3: 17277
Critical_ROB_Stalls_Percent_8_Bucket_4: 247541
Non-critical_ROB_Stalls_Percent_8_Bucket_4: 8202
Critical_ROB_Stalls_Percent_8_Bucket_5: 263597
Non-critical_ROB_Stalls_Percent_8_Bucket_5: 4705
Critical_ROB_Stalls_Percent_8_Bucket_6: 607108
Non-critical_ROB_Stalls_Percent_8_Bucket_6: 9252
Average ROB occupancy Load Stall Begin: 131.761
Average ROB occupancy Load Stall End: 139.892
Min ROB occupancy Load Stall Begin: 1
Max ROB occupancy Load Stall Begin: 352
Min ROB occupancy Load Stall End: 1
Max ROB occupancy Load Stall End: 352
Average ROB occupancy Critical Load Stall Begin: -nan
Average ROB occupancy Critical Load Stall End: -nan
Min ROB occupancy Critical Load Stall Begin: 400
Max ROB occupancy Critical Load Stall Begin: 0
Min ROB occupancy Critical Load Stall End: 400
Max ROB occupancy Critical Load Stall End: 0
 ROB Load Stall Begin Bucket Count 0: 1459684
 ROB Load Stall End Bucket Count 0: 1169375
 ROB Critical Load Stall Begin Bucket Count 0: 0
 ROB Critical Load Stall End Bucket Count 0: 0
 ROB Load Stall Begin Bucket Count 1: 632955
 ROB Load Stall End Bucket Count 1: 808382
 ROB Critical Load Stall Begin Bucket Count 1: 0
 ROB Critical Load Stall End Bucket Count 1: 0
 ROB Load Stall Begin Bucket Count 2: 389529
 ROB Load Stall End Bucket Count 2: 444706
 ROB Critical Load Stall Begin Bucket Count 2: 0
 ROB Critical Load Stall End Bucket Count 2: 0
 ROB Load Stall Begin Bucket Count 3: 288219
 ROB Load Stall End Bucket Count 3: 313647
 ROB Critical Load Stall Begin Bucket Count 3: 0
 ROB Critical Load Stall End Bucket Count 3: 0
 ROB Load Stall Begin Bucket Count 4: 248753
 ROB Load Stall End Bucket Count 4: 255743
 ROB Critical Load Stall Begin Bucket Count 4: 0
 ROB Critical Load Stall End Bucket Count 4: 0
 ROB Load Stall Begin Bucket Count 5: 260937
 ROB Load Stall End Bucket Count 5: 268302
 ROB Critical Load Stall Begin Bucket Count 5: 0
 ROB Critical Load Stall End Bucket Count 5: 0
 ROB Load Stall Begin Bucket Count 6: 596438
 ROB Load Stall End Bucket Count 6: 616360
 ROB Critical Load Stall Begin Bucket Count 6: 0
 ROB Critical Load Stall End Bucket Count 6: 0
PIST Tag Read Accesses: 2576740
PIST Read Accesses: 1288370
PIST Tag Write Accesses: 2576740
PIST Write Accesses: 1288370
Criticality detector called times: 2172359
Max global_stall_cycles_count: 3030256
Threshold Modified: 1 times, factor: -1
Sturdy critical IP cache stats: 
 Unused entries: 0
CIC Tag Read Accesses: 0
CIC Read Accesses: 0
CIC Tag Write Accesses: 0
CIC Write Accesses: 0
Wobbly critical IP cache stats: 
 Unused entries: 91
CIC Tag Read Accesses: 86611356
CIC Read Accesses: 0
CIC Tag Write Accesses: 60787
CIC Write Accesses: 0
ITLB TOTAL     ACCESS:    9865680  HIT:    9671389  MISS:     194291  HIT %:    98.0306  MISS %:    1.96936   MPKI: 3.88582
ITLB LOAD TRANSLATION ACCESS:    8836546  HIT:    8776291  MISS:      60255  HIT %:    99.3181  MISS %:   0.681884   MPKI: 1.2051
ITLB TRANSLATION FROM L1D PREFETCHER ACCESS:    1029134  HIT:     895098  MISS:     134036  HIT %:    86.9758  MISS %:    13.0242   MPKI: 2.68072
ITLB PREFETCH  REQUESTED:          0  ISSUED:          0  USEFUL:     107885  USELESS:      26143
ITLB USEFUL LOAD PREFETCHES:     107885 PREFETCH ISSUED TO LOWER LEVEL:          0  ACCURACY: inf
ITLB TIMELY PREFETCHES:     107885 LATE PREFETCHES: 783 DROPPED PREFETCHES: 10250
ITLB PREFETCHES SAME FILL-ORIGIN LEVEL: 0 DIFFERENT FILL-ORIGIN LEVEL: 0
ITLB AVERAGE MISS LATENCY: 283163 cycles
ITLB RQ	ACCESS:   13026937	FORWARD:          0	MERGED:    3121184	TO_CACHE:    9905753

DTLB TOTAL     ACCESS:   10476553  HIT:    8731149  MISS:    1745404  HIT %:    83.3399  MISS %:    16.6601   MPKI: 34.9081
DTLB LOAD TRANSLATION ACCESS:   10476553  HIT:    8731149  MISS:    1745404  HIT %:    83.3399  MISS %:    16.6601   MPKI: 34.9081
DTLB PREFETCH  REQUESTED:          0  ISSUED:          0  USEFUL:          0  USELESS:          0
DTLB USEFUL LOAD PREFETCHES:          0 PREFETCH ISSUED TO LOWER LEVEL:          0  ACCURACY: -nan
DTLB TIMELY PREFETCHES:          0 LATE PREFETCHES: 0 DROPPED PREFETCHES: 0
DTLB PREFETCHES SAME FILL-ORIGIN LEVEL: 0 DIFFERENT FILL-ORIGIN LEVEL: 0
DTLB AVERAGE MISS LATENCY: 10.8777 cycles
DTLB RQ	ACCESS:   13786151	FORWARD:          0	MERGED:    3272432	TO_CACHE:   10513719

STLB TOTAL     ACCESS:    3435364  HIT:    3337215  MISS:      98149  HIT %:     97.143  MISS %:    2.85702   MPKI: 1.96298
STLB LOAD TRANSLATION ACCESS:    1804876  HIT:    1729090  MISS:      75786  HIT %:     95.801  MISS %:    4.19896   MPKI: 1.51572
STLB TRANSLATION FROM L1D PREFETCHER ACCESS:    1630488  HIT:    1608125  MISS:      22363  HIT %:    98.6284  MISS %:    1.37155   MPKI: 0.44726
STLB PREFETCH  REQUESTED:          0  ISSUED:          0  USEFUL:      13172  USELESS:       9213
STLB USEFUL LOAD PREFETCHES:      13172 PREFETCH ISSUED TO LOWER LEVEL:          0  ACCURACY: inf
STLB TIMELY PREFETCHES:      13172 LATE PREFETCHES: 0 DROPPED PREFETCHES: 10250
STLB PREFETCHES SAME FILL-ORIGIN LEVEL: 0 DIFFERENT FILL-ORIGIN LEVEL: 0
STLB AVERAGE MISS LATENCY: 47.0927 cycles
STLB RQ	ACCESS:    5079453	FORWARD:          0	MERGED:    1633839	TO_CACHE:    3445614

STLB Hit, L1D data hit: 0
STLB Hit, L2C data hit: 0
STLB Hit, LLC data hit: 0
STLB Hit, LLC data miss: 0
STLB STLB hints to L2: 0
L1D TOTAL     ACCESS:   16696062  HIT:   12623892  MISS:    4072170  HIT %:      75.61  MISS %:      24.39   MPKI: 81.4434
L1D LOAD      ACCESS:    9017689  HIT:    6879090  MISS:    2138599  HIT %:    76.2844  MISS %:    23.7156   MPKI: 42.772
L1D RFO       ACCESS:    4595348  HIT:    4483774  MISS:     111574  HIT %:     97.572  MISS %:    2.42798   MPKI: 2.23148
L1D PREFETCH  ACCESS:    3083025  HIT:    1261028  MISS:    1821997  HIT %:    40.9023  MISS %:    59.0977   MPKI: 36.4399
L1D PREFETCH  REQUESTED:    6259054  ISSUED:    6259017  USEFUL:     150058  USELESS:    1671963
L1D USEFUL LOAD PREFETCHES:     150058 PREFETCH ISSUED TO LOWER LEVEL:    1857740  ACCURACY: 8.07745
L1D TIMELY PREFETCHES:     150058 LATE PREFETCHES: 35739 DROPPED PREFETCHES: 0
L1D PREFETCHES SAME FILL-ORIGIN LEVEL: 1857740 DIFFERENT FILL-ORIGIN LEVEL: 0
L1D AVERAGE MISS LATENCY: 347759 cycles
L1D RQ	ACCESS:   12389266	FORWARD:          0	MERGED:    3262851	TO_CACHE:    9050639
L1D WQ	ACCESS:    4834418	FORWARD:      75777	MERGED:      98906	TO_CACHE:    4735512
L1D PQ	ACCESS:    3129509	FORWARD:          0	MERGED:          0	TO_CACHE:    3129508

L1D UNIQUE REGIONS ACCESSED: 0
L1D REGIONS CONFLICTS: 0
L1D Cross Page Prefetch Requests: 0
L1D Same Page Prefetch Requests: 3246630
L1D ROI Sum of L1D PQ occupancy: 40954435
L1D PREFETCHES PUSHED FROM L2C: 0
L1I TOTAL     ACCESS:   12883135  HIT:   11252435  MISS:    1630700  HIT %:    87.3424  MISS %:    12.6576   MPKI: 32.614
L1I LOAD      ACCESS:   10509805  HIT:   10291373  MISS:     218432  HIT %:    97.9216  MISS %:    2.07836   MPKI: 4.36864
L1I PREFETCH  ACCESS:    2373330  HIT:     961062  MISS:    1412268  HIT %:    40.4942  MISS %:    59.5058   MPKI: 28.2454
L1I PREFETCH  REQUESTED:    2593409  ISSUED:    2587021  USEFUL:     920939  USELESS:     491291
L1I USEFUL LOAD PREFETCHES:     920939 PREFETCH ISSUED TO LOWER LEVEL:    1440393  ACCURACY: 63.9366
L1I TIMELY PREFETCHES:     920939 LATE PREFETCHES: 28125 DROPPED PREFETCHES: 29166
L1I PREFETCHES SAME FILL-ORIGIN LEVEL: 1440393 DIFFERENT FILL-ORIGIN LEVEL: 0
L1I AVERAGE MISS LATENCY: 1.21841e+06 cycles
L1I RQ	ACCESS:   15178459	FORWARD:          0	MERGED:    4646091	TO_CACHE:   10532368
L1I PQ	ACCESS:    2587021	FORWARD:          0	MERGED:      92452	TO_CACHE:    2494569

BTB TOTAL     ACCESS:    6346923  HIT:    5659258  MISS:     687665  HIT %:    89.1654  MISS %:    10.8346   MPKI: 13.7533
BTB BRANCH_DIRECT_JUMP	ACCESS:     445350  HIT:     394979  MISS:      50371
BTB BRANCH_INDIRECT	ACCESS:     131150  HIT:     103590  MISS:      27560
BTB BRANCH_CONDITIONAL	ACCESS:    3934011  HIT:    3727039  MISS:     206972
BTB BRANCH_DIRECT_CALL	ACCESS:     732485  HIT:     637543  MISS:      94942
BTB BRANCH_INDIRECT_CALL	ACCESS:     172369  HIT:     162115  MISS:      10254
BTB BRANCH_RETURN	ACCESS:     931558  HIT:     633992  MISS:     297566
BTB BRANCH_OTHER ACCESS:          0  HIT:          0  MISS:          0

L2C TOTAL     ACCESS:    6109710  HIT:    5132369  MISS:     977341  HIT %:    84.0035  MISS %:    15.9965   MPKI: 19.5468
L2C LOAD      ACCESS:    2293149  HIT:    1955684  MISS:     337465  HIT %:    85.2838  MISS %:    14.7162   MPKI: 6.7493
L2C DATA LOAD MPKI: 5.1473
L2C INSTRUCTION LOAD MPKI: 1.602
L2C RFO       ACCESS:     111574  HIT:      71568  MISS:      40006  HIT %:     64.144  MISS %:     35.856   MPKI: 0.80012
L2C PREFETCH  ACCESS:    3319331  HIT:    2788688  MISS:     530643  HIT %:    84.0136  MISS %:    15.9864   MPKI: 10.6129
L2C DATA PREFETCH MPKI: 0.29866
L2C INSTRUCTION PREFETCH MPKI: 10.3142
L2C WRITEBACK ACCESS:     242434  HIT:     224274  MISS:      18160  HIT %:    92.5093  MISS %:     7.4907   MPKI: 0.3632
L2C LOAD TRANSLATION ACCESS:      99649  HIT:      56777  MISS:      42872  HIT %:     56.977  MISS %:     43.023   MPKI: 0.85744
L2C TRANSLATION FROM L1D PREFETCHER ACCESS:      43573  HIT:      35378  MISS:       8195  HIT %:    81.1925  MISS %:    18.8075   MPKI: 0.1639
L2C PREFETCH  REQUESTED:      33429  ISSUED:      33417  USEFUL:      17146  USELESS:     521749
L2C USEFUL LOAD PREFETCHES:      17146 PREFETCH ISSUED TO LOWER LEVEL:     531139  ACCURACY: 3.22816
L2C TIMELY PREFETCHES:      17146 LATE PREFETCHES: 496 DROPPED PREFETCHES: 0
L2C PREFETCHES SAME FILL-ORIGIN LEVEL: 9996 DIFFERENT FILL-ORIGIN LEVEL: 0
L2C AVERAGE MISS LATENCY: 40.5517 cycles
L2C RQ	ACCESS:    2547963	FORWARD:          0	MERGED:          0	TO_CACHE:    2547945
L2C WQ	ACCESS:     242434	FORWARD:         18	MERGED:          0	TO_CACHE:     242434
L2C PQ	ACCESS:    3331546	FORWARD:          0	MERGED:      10807	TO_CACHE:    3320739

L2C Instructions Evicting Data 202384
L2C Translations Evicting Data 16768
L2C Data Evicting Data 106427
L2C Instructions Evicting Instructions 361880
L2C Translations Evicting Instructions 32040
L2C Data Evicting Instructions 189743
L2C Instructions Evicting Translations 31546
L2C Translations Evicting Translations 2259
L2C Data Evicting Translations 16134
L2C Dense regions hint from L2: 0
PSCL5 TOTAL     ACCESS:     108399  HIT:     108399  MISS:          0  HIT %:        100  MISS %:          0   MPKI: 0
PSCL5 LOAD TRANSLATION ACCESS:      75786  HIT:      75786  MISS:          0  HIT %:        100  MISS %:          0   MPKI: 0
PSCL5 TRANSLATION FROM L1D PREFETCHER ACCESS:      32613  HIT:      32613  MISS:          0  HIT %:        100  MISS %:          0   MPKI: 0
PSCL5 PREFETCH  REQUESTED:          0  ISSUED:          0  USEFUL:          0  USELESS:          0
PSCL5 USEFUL LOAD PREFETCHES:          0 PREFETCH ISSUED TO LOWER LEVEL:          0  ACCURACY: -nan
PSCL5 TIMELY PREFETCHES:          0 LATE PREFETCHES: 0 DROPPED PREFETCHES: 0
PSCL5 PREFETCHES SAME FILL-ORIGIN LEVEL: 0 DIFFERENT FILL-ORIGIN LEVEL: 0

PSCL4 TOTAL     ACCESS:      96855  HIT:      96584  MISS:        271  HIT %:    99.7202  MISS %:     0.2798   MPKI: 0.00542
PSCL4 LOAD TRANSLATION ACCESS:      66383  HIT:      66112  MISS:        271  HIT %:    99.5918  MISS %:   0.408237   MPKI: 0.00542
PSCL4 TRANSLATION FROM L1D PREFETCHER ACCESS:      30472  HIT:      30472  MISS:          0  HIT %:        100  MISS %:          0   MPKI: 0
PSCL4 PREFETCH  REQUESTED:          0  ISSUED:          0  USEFUL:          0  USELESS:          0
PSCL4 USEFUL LOAD PREFETCHES:          0 PREFETCH ISSUED TO LOWER LEVEL:          0  ACCURACY: -nan
PSCL4 TIMELY PREFETCHES:          0 LATE PREFETCHES: 0 DROPPED PREFETCHES: 0
PSCL4 PREFETCHES SAME FILL-ORIGIN LEVEL: 0 DIFFERENT FILL-ORIGIN LEVEL: 0

PSCL3 TOTAL     ACCESS:     106415  HIT:     105605  MISS:        810  HIT %:    99.2388  MISS %:   0.761171   MPKI: 0.0162
PSCL3 LOAD TRANSLATION ACCESS:      75424  HIT:      74614  MISS:        810  HIT %:    98.9261  MISS %:    1.07393   MPKI: 0.0162
PSCL3 TRANSLATION FROM L1D PREFETCHER ACCESS:      30991  HIT:      30991  MISS:          0  HIT %:        100  MISS %:          0   MPKI: 0
PSCL3 PREFETCH  REQUESTED:          0  ISSUED:          0  USEFUL:          0  USELESS:          0
PSCL3 USEFUL LOAD PREFETCHES:          0 PREFETCH ISSUED TO LOWER LEVEL:          0  ACCURACY: -nan
PSCL3 TIMELY PREFETCHES:          0 LATE PREFETCHES: 0 DROPPED PREFETCHES: 0
PSCL3 PREFETCHES SAME FILL-ORIGIN LEVEL: 0 DIFFERENT FILL-ORIGIN LEVEL: 0

PSCL2 TOTAL     ACCESS:     101129  HIT:      75278  MISS:      25851  HIT %:    74.4376  MISS %:    25.5624   MPKI: 0.51702
PSCL2 LOAD TRANSLATION ACCESS:      78663  HIT:      52812  MISS:      25851  HIT %:     67.137  MISS %:     32.863   MPKI: 0.51702
PSCL2 TRANSLATION FROM L1D PREFETCHER ACCESS:      22466  HIT:      22466  MISS:          0  HIT %:        100  MISS %:          0   MPKI: 0
PSCL2 PREFETCH  REQUESTED:          0  ISSUED:          0  USEFUL:          0  USELESS:          0
PSCL2 USEFUL LOAD PREFETCHES:          0 PREFETCH ISSUED TO LOWER LEVEL:          0  ACCURACY: -nan
PSCL2 TIMELY PREFETCHES:          0 LATE PREFETCHES: 0 DROPPED PREFETCHES: 0
PSCL2 PREFETCHES SAME FILL-ORIGIN LEVEL: 0 DIFFERENT FILL-ORIGIN LEVEL: 0

LLC TOTAL     ACCESS:    1068087  HIT:     998328  MISS:      69759  HIT %:    93.4688  MISS %:    6.53121   MPKI: 1.39518
LLC LOAD      ACCESS:     336971  HIT:     290034  MISS:      46937  HIT %:    86.0709  MISS %:    13.9291   MPKI: 0.93874
LLC RFO       ACCESS:      39998  HIT:      29412  MISS:      10586  HIT %:    73.5337  MISS %:    26.4663   MPKI: 0.21172
LLC PREFETCH  ACCESS:     531139  HIT:     521252  MISS:       9887  HIT %:    98.1385  MISS %:    1.86147   MPKI: 0.19774
LLC WRITEBACK ACCESS:     108912  HIT:     107949  MISS:        963  HIT %:    99.1158  MISS %:     0.8842   MPKI: 0.01926
LLC LOAD TRANSLATION ACCESS:      42872  HIT:      41546  MISS:       1326  HIT %:    96.9071  MISS %:    3.09293   MPKI: 0.02652
LLC TRANSLATION FROM L1D PREFETCHER ACCESS:       8195  HIT:       8135  MISS:         60  HIT %:    99.2678  MISS %:   0.732154   MPKI: 0.0012
LLC PREFETCH  REQUESTED:          0  ISSUED:          0  USEFUL:       1295  USELESS:      16619
LLC USEFUL LOAD PREFETCHES:       1295 PREFETCH ISSUED TO LOWER LEVEL:       9887  ACCURACY: 13.098
LLC TIMELY PREFETCHES:       1295 LATE PREFETCHES: 0 DROPPED PREFETCHES: 0
LLC PREFETCHES SAME FILL-ORIGIN LEVEL: 0 DIFFERENT FILL-ORIGIN LEVEL: 0
LLC AVERAGE MISS LATENCY: 155.119 cycles
LLC RQ	ACCESS:     428042	FORWARD:          0	MERGED:          0	TO_CACHE:     428036
LLC WQ	ACCESS:     108912	FORWARD:          6	MERGED:          0	TO_CACHE:     108912
LLC PQ	ACCESS:     531139	FORWARD:          0	MERGED:          0	TO_CACHE:     531139

LLC Dense regions hint to LLC: 0

RAW hits: 986417
Loads Generated: 13375685
Loads sent to L1D: 12389266
Stores Generated: 4834417
Stores sent to L1D: 4834418
Major fault: 0 Minor fault: 6724
Allocated PAGES: 6724
I-Shadow cache 408 bytes
Touched + WorthPF tables 6144 bytes 
MMA filter 174 bytes 
FNL filter 272 bytes 
TOTAL PREFETCHER STORAGE SIZE: 25174 bytes
CPU 0 L1I next line prefetcher final stats

stream: 
stream:times selected: 2253677
stream:pref_filled: 1205686
stream:pref_useful: 32374
stream:pref_late: 1490
stream:misses: 881375
stream:misses_by_poll: 0

CS: 
CS:times selected: 591739
CS:pref_filled: 275256
CS:pref_useful: 56806
CS:pref_late: 3191
CS:misses: 49314
CS:misses_by_poll: 0

CPLX: 
CPLX:times selected: 2019481
CPLX:pref_filled: 384320
CPLX:pref_useful: 78852
CPLX:pref_late: 427
CPLX:misses: 692913
CPLX:misses_by_poll: 170

NL_L1: 
NL:times selected: 3767
NL:pref_filled: 334
NL:pref_useful: 38
NL:pref_late: 11
NL:misses: 61
NL:misses_by_poll: 0

total selections: 4868664
total_filled: 1821997
total_useful: 150058
total_late: 40275
total_polluted: 170
total_misses_after_warmup: 1643759
conflicts: 128407
Degree Incremented Times: 22475
Degree Decremented Times: 162306

L1 IP Table Write Accesses: 2873190
L1 IP Table Read Accesses: 2744783
L1 RST Write Accesses: 2104776
L1 RST Read Accesses: 4209552
L1 CSPT Write Accesses: 2104776
L1 CSPT Read Accesses: 3996469
L1 RR Filter Tag Write Accesses: 3129546
L1 RR Filter Tag Read Accesses: 121026086
L1 IP Table Tag Write Accesses: 3063961
L1 IP Table Tag Read Accesses: 3063961
L1 RST Tag Write Accesses: 0
L1 RST Tag Read Accesses: 17865603
L1 RR Filter Write Accesses: 0
L1 RR Filter Read Accesses: 3811381
test: 1227233
L2 IP Table Read Accesses: 5981557
L2 IP Table Write Accesses: 4420976
L2 IP Table Tag Read Accesses: 3005259
L2 IP Table Tag Write Accesses: 3005259

DRAM Statistics
 CHANNEL 0
 RQ ROW_BUFFER_HIT:      14368  ROW_BUFFER_MISS:      54428
 DBUS_CONGESTED:         58
 WQ ROW_BUFFER_HIT:       7749  ROW_BUFFER_MISS:      32613  FULL:          0

 AVG_CONGESTED_CYCLE: 4
 All warmup complete: 2
Channel 0 Bank busy for read cycles: 0
Channel 0 Bank busy for write cycles: 0
Channel 0
Rank 0
0banks busy for read cycles: 80801285
0banks busy for write cycles: 19321
1banks busy for read cycles: 5001199
1banks busy for write cycles: 2691665
2banks busy for read cycles: 1096624
2banks busy for write cycles: 771134
3banks busy for read cycles: 241874
3banks busy for write cycles: 256932
4banks busy for read cycles: 78324
4banks busy for write cycles: 135319
5banks busy for read cycles: 39830
5banks busy for write cycles: 88053
6banks busy for read cycles: 28157
6banks busy for write cycles: 63076
7banks busy for read cycles: 15297
7banks busy for write cycles: 64407
8banks busy for read cycles: 22506
8banks busy for write cycles: 106825

CPU 0 Branch Prediction Accuracy: 99.4713% MPKI: 1.11484 Average ROB Occupancy at Mispredict: 57.8118
Branch types
NOT_BRANCH: 39456589 78.9132%
BRANCH_DIRECT_JUMP: 445350 0.8907%
BRANCH_INDIRECT: 131150 0.2623%
BRANCH_CONDITIONAL: 8130188 16.2604%
BRANCH_DIRECT_CALL: 732485 1.46497%
BRANCH_INDIRECT_CALL: 172369 0.344738%
BRANCH_RETURN: 931558 1.86312%
BRANCH_OTHER: 0 0%

DRAM PAGES: 1048576
Allocated PAGES: 6724
