
*** ChampSim Multicore Out-of-Order Simulator ***

Warmup Instructions: 50000000
Simulation Instructions: 50000000
Number of CPUs: 1
LLC sets: 2048
LLC ways: 16
Off-chip DRAM Size: 4096 MB Channels: 1 Width: 64-bit Data Rate: 6400 MT/s
CPU 0 runs ../IPC-traces//server_022.champsimtrace.xz
.xz
BTB has LRU replacement policy
ITLB has LRU replacement policy
DTLB has LRU replacement policy
STLB has LRU replacement policy
CPU 0 L1I next line prefetcher
L1I has LRU replacement policy
IP Table Entries: 64
L1D has LRU replacement policy
Initialize SRRIP state for L2C
Initialize DRRIP state for LLC
Heartbeat CPU 0 instructions: 10000001 cycles: 3249071 heartbeat IPC: 3.0778 cumulative IPC: 3.0778 (Simulation time: 0 hr 3 min 21 sec) 
Heartbeat CPU 0 instructions: 20000000 cycles: 6508461 heartbeat IPC: 3.06806 cumulative IPC: 3.07292 (Simulation time: 0 hr 6 min 38 sec) 
Heartbeat CPU 0 instructions: 30000002 cycles: 9761293 heartbeat IPC: 3.07424 cumulative IPC: 3.07336 (Simulation time: 0 hr 9 min 56 sec) 
Heartbeat CPU 0 instructions: 40000003 cycles: 13018690 heartbeat IPC: 3.06994 cumulative IPC: 3.07251 (Simulation time: 0 hr 13 min 16 sec) 
Heartbeat CPU 0 instructions: 50000003 cycles: 16272176 heartbeat IPC: 3.07363 cumulative IPC: 3.07273 (Simulation time: 0 hr 16 min 30 sec) 

Warmup complete CPU 0 instructions: 50000003 cycles: 16272176 (Simulation time: 0 hr 16 min 30 sec) 

Heartbeat CPU 0 instructions: 60000000 cycles: 46247008 heartbeat IPC: 0.333613 cumulative IPC: 0.333613 (Simulation time: 0 hr 22 min 0 sec) 
Heartbeat CPU 0 instructions: 70000001 cycles: 75677778 heartbeat IPC: 0.33978 cumulative IPC: 0.336669 (Simulation time: 0 hr 27 min 23 sec) 
Heartbeat CPU 0 instructions: 80000000 cycles: 103418308 heartbeat IPC: 0.360483 cumulative IPC: 0.344249 (Simulation time: 0 hr 32 min 19 sec) 
Heartbeat CPU 0 instructions: 90000003 cycles: 131590650 heartbeat IPC: 0.354958 cumulative IPC: 0.346866 (Simulation time: 0 hr 39 min 49 sec) 
Heartbeat CPU 0 instructions: 100000000 cycles: 159389300 heartbeat IPC: 0.35973 cumulative IPC: 0.349364 (Simulation time: 0 hr 46 min 30 sec) 
Finished CPU 0 instructions: 50000001 cycles: 143117125 cumulative IPC: 0.349364 (Simulation time: 0 hr 46 min 30 sec) 

ChampSim completed all CPUs

Region of Interest Statistics

CPU 0 cumulative IPC: 0.349364 instructions: 50000001 cycles: 143117125

CPU 0 Average Load ROB stall cycles: 4.08273e+07
CPU 0 Fraction of times ROB stalled by Loads: 45.8192
CPU 0 Percentage of Load stall cycles in Total stall cycles: 2.32253e+08
Issued all: 87279614
Issued LT all: 82015543
rob_not_full_when_issued_lt_all: 16790629
Issued LT one: 76151436
rob_not_full_when_issued_lt_one: 12770739
 Total stall cycles: 125475528
 Total load stall cycles: 291420348501595
Unique Load IPs: 6167
CPU 0 NUM of IPS identified critical: 7
CPU 0 Num of Load IPs stalling ROB: 0
Threshold modification factor: 0
Trouble in retire width: -nan
MaC = Marked as critical.
lt_50_percent_before_Mac: 1
gt_90_percent_before_Mac: 0
gt_75_percent_before_Mac: 2
gt_50_percent_before_Mac: 4
stall_proportion_bin_same_before_after: 0
stall_proportion_bin_lower_before_after: 0
stall_proportion_bin_upper_before_after: 0
average_stall_proportion_before: 0.015744
average_stall_proportion_after: 0.0185964
Critical_IP_Detector_Accuracy_70: 0
Critical_IP_Detector_Accuracy_80: 0
Critical_IP_Detector_Accuracy_90: 0
Critical_IP_Detector_Coverage_70: 0
Critical_IP_Detector_Coverage_80: 0
Critical_IP_Detector_Coverage_90: 0
stat_90_percent_critical_ip_stalls_freq: 295118
stat_90_percent_non_critical_ip_stalls_freq: 18446744073709256498
AVERAGE_ROB_Occupancy_90_Percent_Critical_IP_Stalls: 316.644
AVERAGE_ROB_Occupancy_90_Percent_Non_Critical_IP_Stalls: 2.97095e-11
Critical_IP_ROB_Stalls_Bucket_0: 8
Non-critical_IP_ROB_Stalls_Bucket_0: 499686
Critical_IP_ROB_Stalls_Bucket_1: 109
Non-critical_IP_ROB_Stalls_Bucket_1: 615062
Critical_IP_ROB_Stalls_Bucket_2: 4
Non-critical_IP_ROB_Stalls_Bucket_2: 419692
Critical_IP_ROB_Stalls_Bucket_3: 91
Non-critical_IP_ROB_Stalls_Bucket_3: 254611
Critical_IP_ROB_Stalls_Bucket_4: 28
Non-critical_IP_ROB_Stalls_Bucket_4: 167321
Critical_IP_ROB_Stalls_Bucket_5: 36
Non-critical_IP_ROB_Stalls_Bucket_5: 145317
Critical_IP_ROB_Stalls_Bucket_6: 158
Non-critical_IP_ROB_Stalls_Bucket_6: 1168396
0 => IPs accounting for >50 percent of stalls, 1 => 55, 2 => 60, 3 => 65 and so on till 90.
percent50: inf num IPs:  1
percent55: inf num IPs: 1
percent60: inf num IPs: 1
percent65: inf num IPs: 1
percent70: inf num IPs: 1
percent75: inf num IPs: 1
percent80: inf num IPs: 1
percent85: inf num IPs: 1
percent90: inf num IPs: 1
Critical_ROB_Stalls_Percent_0_Bucket_0: 102
Non-critical_ROB_Stalls_Percent_0_Bucket_0: 499592
Critical_ROB_Stalls_Percent_0_Bucket_1: 3378
Non-critical_ROB_Stalls_Percent_0_Bucket_1: 611793
Critical_ROB_Stalls_Percent_0_Bucket_2: 11026
Non-critical_ROB_Stalls_Percent_0_Bucket_2: 408670
Critical_ROB_Stalls_Percent_0_Bucket_3: 20007
Non-critical_ROB_Stalls_Percent_0_Bucket_3: 234695
Critical_ROB_Stalls_Percent_0_Bucket_4: 14360
Non-critical_ROB_Stalls_Percent_0_Bucket_4: 152989
Critical_ROB_Stalls_Percent_0_Bucket_5: 15049
Non-critical_ROB_Stalls_Percent_0_Bucket_5: 130304
Critical_ROB_Stalls_Percent_0_Bucket_6: 231196
Non-critical_ROB_Stalls_Percent_0_Bucket_6: 937358
Critical_ROB_Stalls_Percent_1_Bucket_0: 102
Non-critical_ROB_Stalls_Percent_1_Bucket_0: 499592
Critical_ROB_Stalls_Percent_1_Bucket_1: 3378
Non-critical_ROB_Stalls_Percent_1_Bucket_1: 611793
Critical_ROB_Stalls_Percent_1_Bucket_2: 11026
Non-critical_ROB_Stalls_Percent_1_Bucket_2: 408670
Critical_ROB_Stalls_Percent_1_Bucket_3: 20007
Non-critical_ROB_Stalls_Percent_1_Bucket_3: 234695
Critical_ROB_Stalls_Percent_1_Bucket_4: 14360
Non-critical_ROB_Stalls_Percent_1_Bucket_4: 152989
Critical_ROB_Stalls_Percent_1_Bucket_5: 15049
Non-critical_ROB_Stalls_Percent_1_Bucket_5: 130304
Critical_ROB_Stalls_Percent_1_Bucket_6: 231196
Non-critical_ROB_Stalls_Percent_1_Bucket_6: 937358
Critical_ROB_Stalls_Percent_2_Bucket_0: 102
Non-critical_ROB_Stalls_Percent_2_Bucket_0: 499592
Critical_ROB_Stalls_Percent_2_Bucket_1: 3378
Non-critical_ROB_Stalls_Percent_2_Bucket_1: 611793
Critical_ROB_Stalls_Percent_2_Bucket_2: 11026
Non-critical_ROB_Stalls_Percent_2_Bucket_2: 408670
Critical_ROB_Stalls_Percent_2_Bucket_3: 20007
Non-critical_ROB_Stalls_Percent_2_Bucket_3: 234695
Critical_ROB_Stalls_Percent_2_Bucket_4: 14360
Non-critical_ROB_Stalls_Percent_2_Bucket_4: 152989
Critical_ROB_Stalls_Percent_2_Bucket_5: 15049
Non-critical_ROB_Stalls_Percent_2_Bucket_5: 130304
Critical_ROB_Stalls_Percent_2_Bucket_6: 231196
Non-critical_ROB_Stalls_Percent_2_Bucket_6: 937358
Critical_ROB_Stalls_Percent_3_Bucket_0: 102
Non-critical_ROB_Stalls_Percent_3_Bucket_0: 499592
Critical_ROB_Stalls_Percent_3_Bucket_1: 3378
Non-critical_ROB_Stalls_Percent_3_Bucket_1: 611793
Critical_ROB_Stalls_Percent_3_Bucket_2: 11026
Non-critical_ROB_Stalls_Percent_3_Bucket_2: 408670
Critical_ROB_Stalls_Percent_3_Bucket_3: 20007
Non-critical_ROB_Stalls_Percent_3_Bucket_3: 234695
Critical_ROB_Stalls_Percent_3_Bucket_4: 14360
Non-critical_ROB_Stalls_Percent_3_Bucket_4: 152989
Critical_ROB_Stalls_Percent_3_Bucket_5: 15049
Non-critical_ROB_Stalls_Percent_3_Bucket_5: 130304
Critical_ROB_Stalls_Percent_3_Bucket_6: 231196
Non-critical_ROB_Stalls_Percent_3_Bucket_6: 937358
Critical_ROB_Stalls_Percent_4_Bucket_0: 102
Non-critical_ROB_Stalls_Percent_4_Bucket_0: 499592
Critical_ROB_Stalls_Percent_4_Bucket_1: 3378
Non-critical_ROB_Stalls_Percent_4_Bucket_1: 611793
Critical_ROB_Stalls_Percent_4_Bucket_2: 11026
Non-critical_ROB_Stalls_Percent_4_Bucket_2: 408670
Critical_ROB_Stalls_Percent_4_Bucket_3: 20007
Non-critical_ROB_Stalls_Percent_4_Bucket_3: 234695
Critical_ROB_Stalls_Percent_4_Bucket_4: 14360
Non-critical_ROB_Stalls_Percent_4_Bucket_4: 152989
Critical_ROB_Stalls_Percent_4_Bucket_5: 15049
Non-critical_ROB_Stalls_Percent_4_Bucket_5: 130304
Critical_ROB_Stalls_Percent_4_Bucket_6: 231196
Non-critical_ROB_Stalls_Percent_4_Bucket_6: 937358
Critical_ROB_Stalls_Percent_5_Bucket_0: 102
Non-critical_ROB_Stalls_Percent_5_Bucket_0: 499592
Critical_ROB_Stalls_Percent_5_Bucket_1: 3378
Non-critical_ROB_Stalls_Percent_5_Bucket_1: 611793
Critical_ROB_Stalls_Percent_5_Bucket_2: 11026
Non-critical_ROB_Stalls_Percent_5_Bucket_2: 408670
Critical_ROB_Stalls_Percent_5_Bucket_3: 20007
Non-critical_ROB_Stalls_Percent_5_Bucket_3: 234695
Critical_ROB_Stalls_Percent_5_Bucket_4: 14360
Non-critical_ROB_Stalls_Percent_5_Bucket_4: 152989
Critical_ROB_Stalls_Percent_5_Bucket_5: 15049
Non-critical_ROB_Stalls_Percent_5_Bucket_5: 130304
Critical_ROB_Stalls_Percent_5_Bucket_6: 231196
Non-critical_ROB_Stalls_Percent_5_Bucket_6: 937358
Critical_ROB_Stalls_Percent_6_Bucket_0: 102
Non-critical_ROB_Stalls_Percent_6_Bucket_0: 499592
Critical_ROB_Stalls_Percent_6_Bucket_1: 3378
Non-critical_ROB_Stalls_Percent_6_Bucket_1: 611793
Critical_ROB_Stalls_Percent_6_Bucket_2: 11026
Non-critical_ROB_Stalls_Percent_6_Bucket_2: 408670
Critical_ROB_Stalls_Percent_6_Bucket_3: 20007
Non-critical_ROB_Stalls_Percent_6_Bucket_3: 234695
Critical_ROB_Stalls_Percent_6_Bucket_4: 14360
Non-critical_ROB_Stalls_Percent_6_Bucket_4: 152989
Critical_ROB_Stalls_Percent_6_Bucket_5: 15049
Non-critical_ROB_Stalls_Percent_6_Bucket_5: 130304
Critical_ROB_Stalls_Percent_6_Bucket_6: 231196
Non-critical_ROB_Stalls_Percent_6_Bucket_6: 937358
Critical_ROB_Stalls_Percent_7_Bucket_0: 102
Non-critical_ROB_Stalls_Percent_7_Bucket_0: 499592
Critical_ROB_Stalls_Percent_7_Bucket_1: 3378
Non-critical_ROB_Stalls_Percent_7_Bucket_1: 611793
Critical_ROB_Stalls_Percent_7_Bucket_2: 11026
Non-critical_ROB_Stalls_Percent_7_Bucket_2: 408670
Critical_ROB_Stalls_Percent_7_Bucket_3: 20007
Non-critical_ROB_Stalls_Percent_7_Bucket_3: 234695
Critical_ROB_Stalls_Percent_7_Bucket_4: 14360
Non-critical_ROB_Stalls_Percent_7_Bucket_4: 152989
Critical_ROB_Stalls_Percent_7_Bucket_5: 15049
Non-critical_ROB_Stalls_Percent_7_Bucket_5: 130304
Critical_ROB_Stalls_Percent_7_Bucket_6: 231196
Non-critical_ROB_Stalls_Percent_7_Bucket_6: 937358
Critical_ROB_Stalls_Percent_8_Bucket_0: 102
Non-critical_ROB_Stalls_Percent_8_Bucket_0: 499592
Critical_ROB_Stalls_Percent_8_Bucket_1: 3378
Non-critical_ROB_Stalls_Percent_8_Bucket_1: 611793
Critical_ROB_Stalls_Percent_8_Bucket_2: 11026
Non-critical_ROB_Stalls_Percent_8_Bucket_2: 408670
Critical_ROB_Stalls_Percent_8_Bucket_3: 20007
Non-critical_ROB_Stalls_Percent_8_Bucket_3: 234695
Critical_ROB_Stalls_Percent_8_Bucket_4: 14360
Non-critical_ROB_Stalls_Percent_8_Bucket_4: 152989
Critical_ROB_Stalls_Percent_8_Bucket_5: 15049
Non-critical_ROB_Stalls_Percent_8_Bucket_5: 130304
Critical_ROB_Stalls_Percent_8_Bucket_6: 231196
Non-critical_ROB_Stalls_Percent_8_Bucket_6: 937358
Average ROB occupancy Load Stall Begin: 187.866
Average ROB occupancy Load Stall End: 196.143
Min ROB occupancy Load Stall Begin: 1
Max ROB occupancy Load Stall Begin: 352
Min ROB occupancy Load Stall End: 1
Max ROB occupancy Load Stall End: 352
Average ROB occupancy Critical Load Stall Begin: 202.355
Average ROB occupancy Critical Load Stall End: 214.223
Min ROB occupancy Critical Load Stall Begin: 19
Max ROB occupancy Critical Load Stall Begin: 352
Min ROB occupancy Critical Load Stall End: 19
Max ROB occupancy Critical Load Stall End: 352
 ROB Load Stall Begin Bucket Count 0: 708952
 ROB Load Stall End Bucket Count 0: 499694
 ROB Critical Load Stall Begin Bucket Count 0: 6
 ROB Critical Load Stall End Bucket Count 0: 3
 ROB Load Stall Begin Bucket Count 1: 535624
 ROB Load Stall End Bucket Count 1: 615171
 ROB Critical Load Stall Begin Bucket Count 1: 21
 ROB Critical Load Stall End Bucket Count 1: 23
 ROB Load Stall Begin Bucket Count 2: 371139
 ROB Load Stall End Bucket Count 2: 419696
 ROB Critical Load Stall Begin Bucket Count 2: 15
 ROB Critical Load Stall End Bucket Count 2: 2
 ROB Load Stall Begin Bucket Count 3: 214949
 ROB Load Stall End Bucket Count 3: 254702
 ROB Critical Load Stall Begin Bucket Count 3: 27
 ROB Critical Load Stall End Bucket Count 3: 35
 ROB Load Stall Begin Bucket Count 4: 152770
 ROB Load Stall End Bucket Count 4: 167349
 ROB Critical Load Stall Begin Bucket Count 4: 0
 ROB Critical Load Stall End Bucket Count 4: 6
 ROB Load Stall Begin Bucket Count 5: 147167
 ROB Load Stall End Bucket Count 5: 145353
 ROB Critical Load Stall Begin Bucket Count 5: 20
 ROB Critical Load Stall End Bucket Count 5: 17
 ROB Load Stall Begin Bucket Count 6: 1139918
 ROB Load Stall End Bucket Count 6: 1168554
 ROB Critical Load Stall Begin Bucket Count 6: 32
 ROB Critical Load Stall End Bucket Count 6: 35
PIST Tag Read Accesses: 0
PIST Read Accesses: 0
PIST Tag Write Accesses: 0
PIST Write Accesses: 0
Criticality detector called times: 0
Max global_stall_cycles_count: 0
Threshold Modified: 0 times, factor: 0
Sturdy critical IP cache stats: 
 Unused entries: 0
CIC Tag Read Accesses: 0
CIC Read Accesses: 0
CIC Tag Write Accesses: 0
CIC Write Accesses: 0
Wobbly critical IP cache stats: 
 Unused entries: 1
CIC Tag Read Accesses: 160025741
CIC Read Accesses: 0
CIC Tag Write Accesses: 134920
CIC Write Accesses: 0
ITLB TOTAL     ACCESS:   10451052  HIT:    9955387  MISS:     495665  HIT %:    95.2573  MISS %:    4.74273   MPKI: 9.9133
ITLB LOAD TRANSLATION ACCESS:    8522368  HIT:    8511626  MISS:      10742  HIT %:     99.874  MISS %:   0.126045   MPKI: 0.21484
ITLB TRANSLATION FROM L1D PREFETCHER ACCESS:    1928684  HIT:    1443761  MISS:     484923  HIT %:    74.8573  MISS %:    25.1427   MPKI: 9.69846
ITLB PREFETCH  REQUESTED:          0  ISSUED:          0  USEFUL:     434928  USELESS:      49996
ITLB USEFUL LOAD PREFETCHES:     434928 PREFETCH ISSUED TO LOWER LEVEL:          0  ACCURACY: inf
ITLB TIMELY PREFETCHES:     434928 LATE PREFETCHES: 160 DROPPED PREFETCHES: 0
ITLB PREFETCHES SAME FILL-ORIGIN LEVEL: 0 DIFFERENT FILL-ORIGIN LEVEL: 0
ITLB AVERAGE MISS LATENCY: 27233.1 cycles
ITLB RQ	ACCESS:   15046431	FORWARD:          0	MERGED:    4550462	TO_CACHE:   10495969

DTLB TOTAL     ACCESS:   10885994  HIT:   10475733  MISS:     410261  HIT %:    96.2313  MISS %:     3.7687   MPKI: 8.20522
DTLB LOAD TRANSLATION ACCESS:   10885994  HIT:   10475733  MISS:     410261  HIT %:    96.2313  MISS %:     3.7687   MPKI: 8.20522
DTLB PREFETCH  REQUESTED:          0  ISSUED:          0  USEFUL:          0  USELESS:          0
DTLB USEFUL LOAD PREFETCHES:          0 PREFETCH ISSUED TO LOWER LEVEL:          0  ACCURACY: -nan
DTLB TIMELY PREFETCHES:          0 LATE PREFETCHES: 0 DROPPED PREFETCHES: 0
DTLB PREFETCHES SAME FILL-ORIGIN LEVEL: 0 DIFFERENT FILL-ORIGIN LEVEL: 0
DTLB AVERAGE MISS LATENCY: 16.8546 cycles
DTLB RQ	ACCESS:   16217847	FORWARD:          0	MERGED:    5250249	TO_CACHE:   10967598

STLB TOTAL     ACCESS:     910002  HIT:     890425  MISS:      19577  HIT %:    97.8487  MISS %:    2.15131   MPKI: 0.39154
STLB LOAD TRANSLATION ACCESS:     420843  HIT:     401620  MISS:      19223  HIT %:    95.4323  MISS %:    4.56774   MPKI: 0.38446
STLB TRANSLATION FROM L1D PREFETCHER ACCESS:     489159  HIT:     488805  MISS:        354  HIT %:    99.9276  MISS %:  0.0723691   MPKI: 0.00708
STLB PREFETCH  REQUESTED:          0  ISSUED:          0  USEFUL:        158  USELESS:        196
STLB USEFUL LOAD PREFETCHES:        158 PREFETCH ISSUED TO LOWER LEVEL:          0  ACCURACY: inf
STLB TIMELY PREFETCHES:        158 LATE PREFETCHES: 0 DROPPED PREFETCHES: 0
STLB PREFETCHES SAME FILL-ORIGIN LEVEL: 0 DIFFERENT FILL-ORIGIN LEVEL: 0
STLB AVERAGE MISS LATENCY: 171.151 cycles
STLB RQ	ACCESS:     911731	FORWARD:          0	MERGED:       1729	TO_CACHE:     910002

STLB Hit, L1D data hit: 0
STLB Hit, L2C data hit: 0
STLB Hit, LLC data hit: 0
STLB Hit, LLC data miss: 0
STLB STLB hints to L2: 0
L1D TOTAL     ACCESS:   14130173  HIT:   12309603  MISS:    1820570  HIT %:    87.1157  MISS %:    12.8843   MPKI: 36.4114
L1D LOAD      ACCESS:    7385965  HIT:    6563314  MISS:     822651  HIT %:     88.862  MISS %:     11.138   MPKI: 16.453
L1D RFO       ACCESS:    6739541  HIT:    5744145  MISS:     995396  HIT %:    85.2305  MISS %:    14.7695   MPKI: 19.9079
L1D PREFETCH  ACCESS:       4667  HIT:       2144  MISS:       2523  HIT %:    45.9396  MISS %:    54.0604   MPKI: 0.05046
L1D PREFETCH  REQUESTED:      11626  ISSUED:      11626  USEFUL:        325  USELESS:       2210
L1D USEFUL LOAD PREFETCHES:        325 PREFETCH ISSUED TO LOWER LEVEL:       2524  ACCURACY: 12.8764
L1D TIMELY PREFETCHES:        325 LATE PREFETCHES: 0 DROPPED PREFETCHES: 0
L1D PREFETCHES SAME FILL-ORIGIN LEVEL: 2524 DIFFERENT FILL-ORIGIN LEVEL: 0
L1D AVERAGE MISS LATENCY: 219.429 cycles
L1D RQ	ACCESS:   11066673	FORWARD:          0	MERGED:    3515954	TO_CACHE:    7425720
L1D WQ	ACCESS:    8887929	FORWARD:     125015	MERGED:      95802	TO_CACHE:    8792127
L1D PQ	ACCESS:       5821	FORWARD:          0	MERGED:          0	TO_CACHE:       5805

L1D UNIQUE REGIONS ACCESSED: 0
L1D REGIONS CONFLICTS: 0
L1D Cross Page Prefetch Requests: 0
L1D Same Page Prefetch Requests: 283740
L1D ROI Sum of L1D PQ occupancy: 76672
L1D PREFETCHES PUSHED FROM L2C: 0
L1I TOTAL     ACCESS:   14966535  HIT:   11749515  MISS:    3217020  HIT %:    78.5052  MISS %:    21.4948   MPKI: 64.3404
L1I LOAD      ACCESS:    9943193  HIT:    9925408  MISS:      17785  HIT %:    99.8211  MISS %:   0.178866   MPKI: 0.3557
L1I PREFETCH  ACCESS:    5023342  HIT:    1824107  MISS:    3199235  HIT %:    36.3126  MISS %:    63.6874   MPKI: 63.9847
L1I PREFETCH  REQUESTED:    5255130  ISSUED:    5251443  USEFUL:    2662527  USELESS:     536720
L1I USEFUL LOAD PREFETCHES:    2662527 PREFETCH ISSUED TO LOWER LEVEL:    3204760  ACCURACY: 83.0804
L1I TIMELY PREFETCHES:    2662527 LATE PREFETCHES: 5522 DROPPED PREFETCHES: 0
L1I PREFETCHES SAME FILL-ORIGIN LEVEL: 3204760 DIFFERENT FILL-ORIGIN LEVEL: 0
L1I AVERAGE MISS LATENCY: 157684 cycles
L1I RQ	ACCESS:   14222214	FORWARD:          0	MERGED:    4275518	TO_CACHE:    9946696
L1I PQ	ACCESS:    5251443	FORWARD:          0	MERGED:     151708	TO_CACHE:    5099735

BTB TOTAL     ACCESS:    5297027  HIT:    5037183  MISS:     259844  HIT %:    95.0945  MISS %:    4.90547   MPKI: 5.19688
BTB BRANCH_DIRECT_JUMP	ACCESS:     445734  HIT:     443706  MISS:       2028
BTB BRANCH_INDIRECT	ACCESS:      48875  HIT:      48765  MISS:        110
BTB BRANCH_CONDITIONAL	ACCESS:    2967685  HIT:    2961525  MISS:       6160
BTB BRANCH_DIRECT_CALL	ACCESS:     758262  HIT:     754131  MISS:       4131
BTB BRANCH_INDIRECT_CALL	ACCESS:     159103  HIT:     129311  MISS:      29792
BTB BRANCH_RETURN	ACCESS:     917368  HIT:     699745  MISS:     217623
BTB BRANCH_OTHER ACCESS:          0  HIT:          0  MISS:          0

L2C TOTAL     ACCESS:    6231157  HIT:    4441451  MISS:    1789706  HIT %:    71.2781  MISS %:    28.7219   MPKI: 35.7941
L2C LOAD      ACCESS:     834905  HIT:     207684  MISS:     627221  HIT %:    24.8752  MISS %:    75.1248   MPKI: 12.5444
L2C DATA LOAD MPKI: 12.4661
L2C INSTRUCTION LOAD MPKI: 0.07834
L2C RFO       ACCESS:     995392  HIT:      44250  MISS:     951142  HIT %:    4.44548  MISS %:    95.5545   MPKI: 19.0228
L2C PREFETCH  ACCESS:    3207281  HIT:    3051142  MISS:     156139  HIT %:    95.1317  MISS %:    4.86827   MPKI: 3.12278
L2C DATA PREFETCH MPKI: 0.04822
L2C INSTRUCTION PREFETCH MPKI: 3.07456
L2C WRITEBACK ACCESS:    1171929  HIT:    1126337  MISS:      45592  HIT %:    96.1097  MISS %:    3.89034   MPKI: 0.91184
L2C LOAD TRANSLATION ACCESS:      21136  HIT:      11924  MISS:       9212  HIT %:    56.4156  MISS %:    43.5844   MPKI: 0.18424
L2C TRANSLATION FROM L1D PREFETCHER ACCESS:        514  HIT:        114  MISS:        400  HIT %:     22.179  MISS %:     77.821   MPKI: 0.008
L2C PREFETCH  REQUESTED:          0  ISSUED:          0  USEFUL:       1794  USELESS:     155208
L2C USEFUL LOAD PREFETCHES:       1794 PREFETCH ISSUED TO LOWER LEVEL:     156139  ACCURACY: 1.14898
L2C TIMELY PREFETCHES:       1794 LATE PREFETCHES: 0 DROPPED PREFETCHES: 0
L2C PREFETCHES SAME FILL-ORIGIN LEVEL: 0 DIFFERENT FILL-ORIGIN LEVEL: 0
L2C AVERAGE MISS LATENCY: 162.834 cycles
L2C RQ	ACCESS:    1851959	FORWARD:          0	MERGED:          0	TO_CACHE:    1851947
L2C WQ	ACCESS:    1171929	FORWARD:         12	MERGED:          0	TO_CACHE:    1171929
L2C PQ	ACCESS:    3207284	FORWARD:          0	MERGED:          0	TO_CACHE:    3207284

L2C Instructions Evicting Data 145127
L2C Translations Evicting Data 8791
L2C Data Evicting Data 1427124
L2C Instructions Evicting Instructions 11737
L2C Translations Evicting Instructions 777
L2C Data Evicting Instructions 141132
L2C Instructions Evicting Translations 781
L2C Translations Evicting Translations 44
L2C Data Evicting Translations 8601
L2C Dense regions hint from L2: 0
PSCL5 TOTAL     ACCESS:      19577  HIT:      19577  MISS:          0  HIT %:        100  MISS %:          0   MPKI: 0
PSCL5 LOAD TRANSLATION ACCESS:      19223  HIT:      19223  MISS:          0  HIT %:        100  MISS %:          0   MPKI: 0
PSCL5 TRANSLATION FROM L1D PREFETCHER ACCESS:        354  HIT:        354  MISS:          0  HIT %:        100  MISS %:          0   MPKI: 0
PSCL5 PREFETCH  REQUESTED:          0  ISSUED:          0  USEFUL:          0  USELESS:          0
PSCL5 USEFUL LOAD PREFETCHES:          0 PREFETCH ISSUED TO LOWER LEVEL:          0  ACCURACY: -nan
PSCL5 TIMELY PREFETCHES:          0 LATE PREFETCHES: 0 DROPPED PREFETCHES: 0
PSCL5 PREFETCHES SAME FILL-ORIGIN LEVEL: 0 DIFFERENT FILL-ORIGIN LEVEL: 0

PSCL4 TOTAL     ACCESS:      17474  HIT:      17449  MISS:         25  HIT %:    99.8569  MISS %:    0.14307   MPKI: 0.0005
PSCL4 LOAD TRANSLATION ACCESS:      17130  HIT:      17105  MISS:         25  HIT %:    99.8541  MISS %:   0.145943   MPKI: 0.0005
PSCL4 TRANSLATION FROM L1D PREFETCHER ACCESS:        344  HIT:        344  MISS:          0  HIT %:        100  MISS %:          0   MPKI: 0
PSCL4 PREFETCH  REQUESTED:          0  ISSUED:          0  USEFUL:          0  USELESS:          0
PSCL4 USEFUL LOAD PREFETCHES:          0 PREFETCH ISSUED TO LOWER LEVEL:          0  ACCURACY: -nan
PSCL4 TIMELY PREFETCHES:          0 LATE PREFETCHES: 0 DROPPED PREFETCHES: 0
PSCL4 PREFETCHES SAME FILL-ORIGIN LEVEL: 0 DIFFERENT FILL-ORIGIN LEVEL: 0

PSCL3 TOTAL     ACCESS:      19566  HIT:      19516  MISS:         50  HIT %:    99.7445  MISS %:   0.255545   MPKI: 0.001
PSCL3 LOAD TRANSLATION ACCESS:      19234  HIT:      19184  MISS:         50  HIT %:      99.74  MISS %:   0.259956   MPKI: 0.001
PSCL3 TRANSLATION FROM L1D PREFETCHER ACCESS:        332  HIT:        332  MISS:          0  HIT %:        100  MISS %:          0   MPKI: 0
PSCL3 PREFETCH  REQUESTED:          0  ISSUED:          0  USEFUL:          0  USELESS:          0
PSCL3 USEFUL LOAD PREFETCHES:          0 PREFETCH ISSUED TO LOWER LEVEL:          0  ACCURACY: -nan
PSCL3 TIMELY PREFETCHES:          0 LATE PREFETCHES: 0 DROPPED PREFETCHES: 0
PSCL3 PREFETCHES SAME FILL-ORIGIN LEVEL: 0 DIFFERENT FILL-ORIGIN LEVEL: 0

PSCL2 TOTAL     ACCESS:      19577  HIT:      17550  MISS:       2027  HIT %:     89.646  MISS %:     10.354   MPKI: 0.04054
PSCL2 LOAD TRANSLATION ACCESS:      19357  HIT:      17330  MISS:       2027  HIT %:    89.5283  MISS %:    10.4717   MPKI: 0.04054
PSCL2 TRANSLATION FROM L1D PREFETCHER ACCESS:        220  HIT:        220  MISS:          0  HIT %:        100  MISS %:          0   MPKI: 0
PSCL2 PREFETCH  REQUESTED:          0  ISSUED:          0  USEFUL:          0  USELESS:          0
PSCL2 USEFUL LOAD PREFETCHES:          0 PREFETCH ISSUED TO LOWER LEVEL:          0  ACCURACY: -nan
PSCL2 TIMELY PREFETCHES:          0 LATE PREFETCHES: 0 DROPPED PREFETCHES: 0
PSCL2 PREFETCHES SAME FILL-ORIGIN LEVEL: 0 DIFFERENT FILL-ORIGIN LEVEL: 0

LLC TOTAL     ACCESS:    2831226  HIT:    1308754  MISS:    1522472  HIT %:    46.2257  MISS %:    53.7743   MPKI: 30.4494
LLC LOAD      ACCESS:     627221  HIT:     292105  MISS:     335116  HIT %:    46.5713  MISS %:    53.4287   MPKI: 6.70232
LLC RFO       ACCESS:     951141  HIT:     237112  MISS:     714029  HIT %:    24.9292  MISS %:    75.0708   MPKI: 14.2806
LLC PREFETCH  ACCESS:     156139  HIT:     146594  MISS:       9545  HIT %:    93.8869  MISS %:    6.11314   MPKI: 0.1909
LLC WRITEBACK ACCESS:    1087113  HIT:     630043  MISS:     457070  HIT %:    57.9556  MISS %:    42.0444   MPKI: 9.1414
LLC LOAD TRANSLATION ACCESS:       9212  HIT:       2759  MISS:       6453  HIT %:    29.9501  MISS %:    70.0499   MPKI: 0.12906
LLC TRANSLATION FROM L1D PREFETCHER ACCESS:        400  HIT:        141  MISS:        259  HIT %:      35.25  MISS %:      64.75   MPKI: 0.00518
LLC PREFETCH  REQUESTED:          0  ISSUED:          0  USEFUL:        244  USELESS:      11879
LLC USEFUL LOAD PREFETCHES:        244 PREFETCH ISSUED TO LOWER LEVEL:       9545  ACCURACY: 2.55631
LLC TIMELY PREFETCHES:        244 LATE PREFETCHES: 0 DROPPED PREFETCHES: 0
LLC PREFETCHES SAME FILL-ORIGIN LEVEL: 0 DIFFERENT FILL-ORIGIN LEVEL: 0
LLC AVERAGE MISS LATENCY: 155.4 cycles
LLC RQ	ACCESS:    1587975	FORWARD:          0	MERGED:          0	TO_CACHE:    1587974
LLC WQ	ACCESS:    1087113	FORWARD:          1	MERGED:          0	TO_CACHE:    1087113
LLC PQ	ACCESS:     156139	FORWARD:          0	MERGED:          0	TO_CACHE:     156139

LLC Dense regions hint to LLC: 0

RAW hits: 1390062
Loads Generated: 12456735
Loads sent to L1D: 11066673
Stores Generated: 8887926
Stores sent to L1D: 8887929
Major fault: 0 Minor fault: 23677
Allocated PAGES: 23677
I-Shadow cache 408 bytes
Touched + WorthPF tables 6144 bytes 
MMA filter 174 bytes 
FNL filter 272 bytes 
TOTAL PREFETCHER STORAGE SIZE: 25174 bytes
CPU 0 L1I next line prefetcher final stats

stream: 
stream:times selected: 233856
stream:pref_filled: 45697
stream:pref_useful: 19184
stream:pref_late: 14626
stream:misses: 3953
stream:misses_by_poll: 0

CS: 
CS:times selected: 77373
CS:pref_filled: 41491
CS:pref_useful: 40267
CS:pref_late: 62
CS:misses: 1003
CS:misses_by_poll: 0

CPLX: 
CPLX:times selected: 154491
CPLX:pref_filled: 70827
CPLX:pref_useful: 39903
CPLX:pref_late: 366
CPLX:misses: 15278
CPLX:misses_by_poll: 0

NL_L1: 
NL:times selected: 246
NL:pref_filled: 95
NL:pref_useful: 23
NL:pref_late: 12
NL:misses: 55
NL:misses_by_poll: 0

total selections: 465966
total_filled: 2523
total_useful: 325
total_late: 15138
total_polluted: 0
total_misses_after_warmup: 207
conflicts: 7
Degree Incremented Times: 6844
Degree Decremented Times: 6268

L1 IP Table Write Accesses: 5606
L1 IP Table Read Accesses: 5599
L1 RST Write Accesses: 4222
L1 RST Read Accesses: 8444
L1 CSPT Write Accesses: 4222
L1 CSPT Read Accesses: 13021
L1 RR Filter Tag Write Accesses: 5821
L1 RR Filter Tag Read Accesses: 194714
L1 IP Table Tag Write Accesses: 5976
L1 IP Table Tag Read Accesses: 5976
L1 RST Tag Write Accesses: 0
L1 RST Tag Read Accesses: 36409
L1 RR Filter Write Accesses: 0
L1 RR Filter Read Accesses: 6243
test: 42279

DRAM Statistics
 CHANNEL 0
 RQ ROW_BUFFER_HIT:     485983  ROW_BUFFER_MISS:     579408
 DBUS_CONGESTED:        541
 WQ ROW_BUFFER_HIT:     327859  ROW_BUFFER_MISS:     405027  FULL:      12824

 AVG_CONGESTED_CYCLE: 3
 All warmup complete: 2
Channel 0 Bank busy for read cycles: 0
Channel 0 Bank busy for write cycles: 0
Channel 0
Rank 0
0banks busy for read cycles: 40701977
0banks busy for write cycles: 88339
1banks busy for read cycles: 41106798
1banks busy for write cycles: 20454704
2banks busy for read cycles: 8038227
2banks busy for write cycles: 8372457
3banks busy for read cycles: 745838
3banks busy for write cycles: 3361498
4banks busy for read cycles: 1327548
4banks busy for write cycles: 1665828
5banks busy for read cycles: 363896
5banks busy for write cycles: 1064565
6banks busy for read cycles: 483150
6banks busy for write cycles: 846634
7banks busy for read cycles: 899098
7banks busy for write cycles: 1252131
8banks busy for read cycles: 4599988
8banks busy for write cycles: 7744450

CPU 0 Branch Prediction Accuracy: 99.8317% MPKI: 0.27564 Average ROB Occupancy at Mispredict: 116.375
Branch types
NOT_BRANCH: 41810970 83.6219%
BRANCH_DIRECT_JUMP: 445734 0.891468%
BRANCH_INDIRECT: 48875 0.09775%
BRANCH_CONDITIONAL: 5859370 11.7187%
BRANCH_DIRECT_CALL: 758262 1.51652%
BRANCH_INDIRECT_CALL: 159103 0.318206%
BRANCH_RETURN: 917368 1.83474%
BRANCH_OTHER: 0 0%

DRAM PAGES: 1048576
Allocated PAGES: 23677
