
*** ChampSim Multicore Out-of-Order Simulator ***

Warmup Instructions: 50000000
Simulation Instructions: 50000000
Number of CPUs: 1
LLC sets: 2048
LLC ways: 16
Off-chip DRAM Size: 4096 MB Channels: 1 Width: 64-bit Data Rate: 6400 MT/s
CPU 0 runs ../IPC-traces//server_016.champsimtrace.xz
.xz
BTB has LRU replacement policy
ITLB has LRU replacement policy
DTLB has LRU replacement policy
STLB has LRU replacement policy
CPU 0 L1I next line prefetcher
L1I has LRU replacement policy
L1D has LRU replacement policy
Bingo PHT WAYS: 16 and PHT_SIZE: 16384
Initialize SRRIP state for L2C
Initialize DRRIP state for LLC
Heartbeat CPU 0 instructions: 10000000 cycles: 2874278 heartbeat IPC: 3.47913 cumulative IPC: 3.47913 (Simulation time: 0 hr 3 min 42 sec) 
Heartbeat CPU 0 instructions: 20000000 cycles: 5743530 heartbeat IPC: 3.48523 cumulative IPC: 3.48218 (Simulation time: 0 hr 6 min 54 sec) 
Heartbeat CPU 0 instructions: 30000001 cycles: 8609854 heartbeat IPC: 3.48879 cumulative IPC: 3.48438 (Simulation time: 0 hr 10 min 26 sec) 
Heartbeat CPU 0 instructions: 40000001 cycles: 11763359 heartbeat IPC: 3.17107 cumulative IPC: 3.40039 (Simulation time: 0 hr 12 min 18 sec) 
Heartbeat CPU 0 instructions: 50000002 cycles: 14998823 heartbeat IPC: 3.09075 cumulative IPC: 3.3336 (Simulation time: 0 hr 13 min 36 sec) 

Warmup complete CPU 0 instructions: 50000002 cycles: 14998823 (Simulation time: 0 hr 13 min 36 sec) 

Heartbeat CPU 0 instructions: 60000001 cycles: 29639181 heartbeat IPC: 0.683043 cumulative IPC: 0.683043 (Simulation time: 0 hr 16 min 13 sec) 
Heartbeat CPU 0 instructions: 70000001 cycles: 45528070 heartbeat IPC: 0.629371 cumulative IPC: 0.655109 (Simulation time: 0 hr 19 min 24 sec) 
Heartbeat CPU 0 instructions: 80000000 cycles: 61606239 heartbeat IPC: 0.621961 cumulative IPC: 0.643674 (Simulation time: 0 hr 22 min 39 sec) 
Heartbeat CPU 0 instructions: 90000000 cycles: 77229006 heartbeat IPC: 0.640091 cumulative IPC: 0.642775 (Simulation time: 0 hr 26 min 0 sec) 
Heartbeat CPU 0 instructions: 100000000 cycles: 93032865 heartbeat IPC: 0.632757 cumulative IPC: 0.640746 (Simulation time: 0 hr 29 min 22 sec) 
Finished CPU 0 instructions: 50000000 cycles: 78034043 cumulative IPC: 0.640746 (Simulation time: 0 hr 29 min 22 sec) 

ChampSim completed all CPUs

Region of Interest Statistics

CPU 0 cumulative IPC: 0.640746 instructions: 50000000 cycles: 78034043

CPU 0 Average Load ROB stall cycles: 2.01133e+07
CPU 0 Fraction of times ROB stalled by Loads: 38.0825
CPU 0 Percentage of Load stall cycles in Total stall cycles: 2.83659e+08
Issued all: 28660055
Issued LT all: 22417960
rob_not_full_when_issued_lt_all: 22112281
Issued LT one: 18236465
rob_not_full_when_issued_lt_one: 17970238
 Total stall cycles: 64900961
 Total load stall cycles: 184097324465617
Unique Load IPs: 13820
CPU 0 NUM of IPS identified critical: 32
CPU 0 Num of Load IPs stalling ROB: 0
Threshold modification factor: 0
Trouble in retire width: -nan
MaC = Marked as critical.
lt_50_percent_before_Mac: 4
gt_90_percent_before_Mac: 3
gt_75_percent_before_Mac: 9
gt_50_percent_before_Mac: 8
stall_proportion_bin_same_before_after: 0
stall_proportion_bin_lower_before_after: 0
stall_proportion_bin_upper_before_after: 0
average_stall_proportion_before: 0.0340118
average_stall_proportion_after: 0.0340308
Critical_IP_Detector_Accuracy_70: 0
Critical_IP_Detector_Accuracy_80: 0
Critical_IP_Detector_Accuracy_90: 0
Critical_IP_Detector_Coverage_70: 0
Critical_IP_Detector_Coverage_80: 0
Critical_IP_Detector_Coverage_90: 0
stat_90_percent_critical_ip_stalls_freq: 616061
stat_90_percent_non_critical_ip_stalls_freq: 18446744073708935555
AVERAGE_ROB_Occupancy_90_Percent_Critical_IP_Stalls: 18.0567
AVERAGE_ROB_Occupancy_90_Percent_Non_Critical_IP_Stalls: 7.46492e-12
Critical_IP_ROB_Stalls_Bucket_0: 9315
Non-critical_IP_ROB_Stalls_Bucket_0: 2547831
Critical_IP_ROB_Stalls_Bucket_1: 2752
Non-critical_IP_ROB_Stalls_Bucket_1: 597347
Critical_IP_ROB_Stalls_Bucket_2: 3806
Non-critical_IP_ROB_Stalls_Bucket_2: 235518
Critical_IP_ROB_Stalls_Bucket_3: 1744
Non-critical_IP_ROB_Stalls_Bucket_3: 45917
Critical_IP_ROB_Stalls_Bucket_4: 380
Non-critical_IP_ROB_Stalls_Bucket_4: 15348
Critical_IP_ROB_Stalls_Bucket_5: 60
Non-critical_IP_ROB_Stalls_Bucket_5: 8101
Critical_IP_ROB_Stalls_Bucket_6: 89
Non-critical_IP_ROB_Stalls_Bucket_6: 17489
0 => IPs accounting for >50 percent of stalls, 1 => 55, 2 => 60, 3 => 65 and so on till 90.
percent50: inf num IPs:  1
percent55: inf num IPs: 1
percent60: inf num IPs: 1
percent65: inf num IPs: 1
percent70: inf num IPs: 1
percent75: inf num IPs: 1
percent80: inf num IPs: 1
percent85: inf num IPs: 1
percent90: inf num IPs: 1
Critical_ROB_Stalls_Percent_0_Bucket_0: 610461
Non-critical_ROB_Stalls_Percent_0_Bucket_0: 1946685
Critical_ROB_Stalls_Percent_0_Bucket_1: 1127
Non-critical_ROB_Stalls_Percent_0_Bucket_1: 598972
Critical_ROB_Stalls_Percent_0_Bucket_2: 4473
Non-critical_ROB_Stalls_Percent_0_Bucket_2: 234851
Critical_ROB_Stalls_Percent_0_Bucket_3: 0
Non-critical_ROB_Stalls_Percent_0_Bucket_3: 47661
Critical_ROB_Stalls_Percent_0_Bucket_4: 0
Non-critical_ROB_Stalls_Percent_0_Bucket_4: 15728
Critical_ROB_Stalls_Percent_0_Bucket_5: 0
Non-critical_ROB_Stalls_Percent_0_Bucket_5: 8161
Critical_ROB_Stalls_Percent_0_Bucket_6: 0
Non-critical_ROB_Stalls_Percent_0_Bucket_6: 17578
Critical_ROB_Stalls_Percent_1_Bucket_0: 610461
Non-critical_ROB_Stalls_Percent_1_Bucket_0: 1946685
Critical_ROB_Stalls_Percent_1_Bucket_1: 1127
Non-critical_ROB_Stalls_Percent_1_Bucket_1: 598972
Critical_ROB_Stalls_Percent_1_Bucket_2: 4473
Non-critical_ROB_Stalls_Percent_1_Bucket_2: 234851
Critical_ROB_Stalls_Percent_1_Bucket_3: 0
Non-critical_ROB_Stalls_Percent_1_Bucket_3: 47661
Critical_ROB_Stalls_Percent_1_Bucket_4: 0
Non-critical_ROB_Stalls_Percent_1_Bucket_4: 15728
Critical_ROB_Stalls_Percent_1_Bucket_5: 0
Non-critical_ROB_Stalls_Percent_1_Bucket_5: 8161
Critical_ROB_Stalls_Percent_1_Bucket_6: 0
Non-critical_ROB_Stalls_Percent_1_Bucket_6: 17578
Critical_ROB_Stalls_Percent_2_Bucket_0: 610461
Non-critical_ROB_Stalls_Percent_2_Bucket_0: 1946685
Critical_ROB_Stalls_Percent_2_Bucket_1: 1127
Non-critical_ROB_Stalls_Percent_2_Bucket_1: 598972
Critical_ROB_Stalls_Percent_2_Bucket_2: 4473
Non-critical_ROB_Stalls_Percent_2_Bucket_2: 234851
Critical_ROB_Stalls_Percent_2_Bucket_3: 0
Non-critical_ROB_Stalls_Percent_2_Bucket_3: 47661
Critical_ROB_Stalls_Percent_2_Bucket_4: 0
Non-critical_ROB_Stalls_Percent_2_Bucket_4: 15728
Critical_ROB_Stalls_Percent_2_Bucket_5: 0
Non-critical_ROB_Stalls_Percent_2_Bucket_5: 8161
Critical_ROB_Stalls_Percent_2_Bucket_6: 0
Non-critical_ROB_Stalls_Percent_2_Bucket_6: 17578
Critical_ROB_Stalls_Percent_3_Bucket_0: 610461
Non-critical_ROB_Stalls_Percent_3_Bucket_0: 1946685
Critical_ROB_Stalls_Percent_3_Bucket_1: 1127
Non-critical_ROB_Stalls_Percent_3_Bucket_1: 598972
Critical_ROB_Stalls_Percent_3_Bucket_2: 4473
Non-critical_ROB_Stalls_Percent_3_Bucket_2: 234851
Critical_ROB_Stalls_Percent_3_Bucket_3: 0
Non-critical_ROB_Stalls_Percent_3_Bucket_3: 47661
Critical_ROB_Stalls_Percent_3_Bucket_4: 0
Non-critical_ROB_Stalls_Percent_3_Bucket_4: 15728
Critical_ROB_Stalls_Percent_3_Bucket_5: 0
Non-critical_ROB_Stalls_Percent_3_Bucket_5: 8161
Critical_ROB_Stalls_Percent_3_Bucket_6: 0
Non-critical_ROB_Stalls_Percent_3_Bucket_6: 17578
Critical_ROB_Stalls_Percent_4_Bucket_0: 610461
Non-critical_ROB_Stalls_Percent_4_Bucket_0: 1946685
Critical_ROB_Stalls_Percent_4_Bucket_1: 1127
Non-critical_ROB_Stalls_Percent_4_Bucket_1: 598972
Critical_ROB_Stalls_Percent_4_Bucket_2: 4473
Non-critical_ROB_Stalls_Percent_4_Bucket_2: 234851
Critical_ROB_Stalls_Percent_4_Bucket_3: 0
Non-critical_ROB_Stalls_Percent_4_Bucket_3: 47661
Critical_ROB_Stalls_Percent_4_Bucket_4: 0
Non-critical_ROB_Stalls_Percent_4_Bucket_4: 15728
Critical_ROB_Stalls_Percent_4_Bucket_5: 0
Non-critical_ROB_Stalls_Percent_4_Bucket_5: 8161
Critical_ROB_Stalls_Percent_4_Bucket_6: 0
Non-critical_ROB_Stalls_Percent_4_Bucket_6: 17578
Critical_ROB_Stalls_Percent_5_Bucket_0: 610461
Non-critical_ROB_Stalls_Percent_5_Bucket_0: 1946685
Critical_ROB_Stalls_Percent_5_Bucket_1: 1127
Non-critical_ROB_Stalls_Percent_5_Bucket_1: 598972
Critical_ROB_Stalls_Percent_5_Bucket_2: 4473
Non-critical_ROB_Stalls_Percent_5_Bucket_2: 234851
Critical_ROB_Stalls_Percent_5_Bucket_3: 0
Non-critical_ROB_Stalls_Percent_5_Bucket_3: 47661
Critical_ROB_Stalls_Percent_5_Bucket_4: 0
Non-critical_ROB_Stalls_Percent_5_Bucket_4: 15728
Critical_ROB_Stalls_Percent_5_Bucket_5: 0
Non-critical_ROB_Stalls_Percent_5_Bucket_5: 8161
Critical_ROB_Stalls_Percent_5_Bucket_6: 0
Non-critical_ROB_Stalls_Percent_5_Bucket_6: 17578
Critical_ROB_Stalls_Percent_6_Bucket_0: 610461
Non-critical_ROB_Stalls_Percent_6_Bucket_0: 1946685
Critical_ROB_Stalls_Percent_6_Bucket_1: 1127
Non-critical_ROB_Stalls_Percent_6_Bucket_1: 598972
Critical_ROB_Stalls_Percent_6_Bucket_2: 4473
Non-critical_ROB_Stalls_Percent_6_Bucket_2: 234851
Critical_ROB_Stalls_Percent_6_Bucket_3: 0
Non-critical_ROB_Stalls_Percent_6_Bucket_3: 47661
Critical_ROB_Stalls_Percent_6_Bucket_4: 0
Non-critical_ROB_Stalls_Percent_6_Bucket_4: 15728
Critical_ROB_Stalls_Percent_6_Bucket_5: 0
Non-critical_ROB_Stalls_Percent_6_Bucket_5: 8161
Critical_ROB_Stalls_Percent_6_Bucket_6: 0
Non-critical_ROB_Stalls_Percent_6_Bucket_6: 17578
Critical_ROB_Stalls_Percent_7_Bucket_0: 610461
Non-critical_ROB_Stalls_Percent_7_Bucket_0: 1946685
Critical_ROB_Stalls_Percent_7_Bucket_1: 1127
Non-critical_ROB_Stalls_Percent_7_Bucket_1: 598972
Critical_ROB_Stalls_Percent_7_Bucket_2: 4473
Non-critical_ROB_Stalls_Percent_7_Bucket_2: 234851
Critical_ROB_Stalls_Percent_7_Bucket_3: 0
Non-critical_ROB_Stalls_Percent_7_Bucket_3: 47661
Critical_ROB_Stalls_Percent_7_Bucket_4: 0
Non-critical_ROB_Stalls_Percent_7_Bucket_4: 15728
Critical_ROB_Stalls_Percent_7_Bucket_5: 0
Non-critical_ROB_Stalls_Percent_7_Bucket_5: 8161
Critical_ROB_Stalls_Percent_7_Bucket_6: 0
Non-critical_ROB_Stalls_Percent_7_Bucket_6: 17578
Critical_ROB_Stalls_Percent_8_Bucket_0: 610461
Non-critical_ROB_Stalls_Percent_8_Bucket_0: 1946685
Critical_ROB_Stalls_Percent_8_Bucket_1: 1127
Non-critical_ROB_Stalls_Percent_8_Bucket_1: 598972
Critical_ROB_Stalls_Percent_8_Bucket_2: 4473
Non-critical_ROB_Stalls_Percent_8_Bucket_2: 234851
Critical_ROB_Stalls_Percent_8_Bucket_3: 0
Non-critical_ROB_Stalls_Percent_8_Bucket_3: 47661
Critical_ROB_Stalls_Percent_8_Bucket_4: 0
Non-critical_ROB_Stalls_Percent_8_Bucket_4: 15728
Critical_ROB_Stalls_Percent_8_Bucket_5: 0
Non-critical_ROB_Stalls_Percent_8_Bucket_5: 8161
Critical_ROB_Stalls_Percent_8_Bucket_6: 0
Non-critical_ROB_Stalls_Percent_8_Bucket_6: 17578
Average ROB occupancy Load Stall Begin: 34.7751
Average ROB occupancy Load Stall End: 42.6966
Min ROB occupancy Load Stall Begin: 1
Max ROB occupancy Load Stall Begin: 352
Min ROB occupancy Load Stall End: 1
Max ROB occupancy Load Stall End: 352
Average ROB occupancy Critical Load Stall Begin: 49.7547
Average ROB occupancy Critical Load Stall End: 56.1589
Min ROB occupancy Critical Load Stall Begin: 2
Max ROB occupancy Critical Load Stall Begin: 352
Min ROB occupancy Critical Load Stall End: 2
Max ROB occupancy Critical Load Stall End: 352
 ROB Load Stall Begin Bucket Count 0: 2754855
 ROB Load Stall End Bucket Count 0: 2557146
 ROB Critical Load Stall Begin Bucket Count 0: 2619
 ROB Critical Load Stall End Bucket Count 0: 2461
 ROB Load Stall Begin Bucket Count 1: 480021
 ROB Load Stall End Bucket Count 1: 600099
 ROB Critical Load Stall Begin Bucket Count 1: 349
 ROB Critical Load Stall End Bucket Count 1: 468
 ROB Load Stall Begin Bucket Count 2: 180825
 ROB Load Stall End Bucket Count 2: 239324
 ROB Critical Load Stall Begin Bucket Count 2: 552
 ROB Critical Load Stall End Bucket Count 2: 556
 ROB Load Stall Begin Bucket Count 3: 32894
 ROB Load Stall End Bucket Count 3: 47661
 ROB Critical Load Stall Begin Bucket Count 3: 181
 ROB Critical Load Stall End Bucket Count 3: 210
 ROB Load Stall Begin Bucket Count 4: 12975
 ROB Load Stall End Bucket Count 4: 15728
 ROB Critical Load Stall Begin Bucket Count 4: 40
 ROB Critical Load Stall End Bucket Count 4: 45
 ROB Load Stall Begin Bucket Count 5: 7493
 ROB Load Stall End Bucket Count 5: 8161
 ROB Critical Load Stall Begin Bucket Count 5: 2
 ROB Critical Load Stall End Bucket Count 5: 3
 ROB Load Stall Begin Bucket Count 6: 16635
 ROB Load Stall End Bucket Count 6: 17578
 ROB Critical Load Stall Begin Bucket Count 6: 40
 ROB Critical Load Stall End Bucket Count 6: 41
PIST Tag Read Accesses: 0
PIST Read Accesses: 0
PIST Tag Write Accesses: 0
PIST Write Accesses: 0
Criticality detector called times: 0
Max global_stall_cycles_count: 0
Threshold Modified: 0 times, factor: 0
Sturdy critical IP cache stats: 
 Unused entries: 0
CIC Tag Read Accesses: 0
CIC Read Accesses: 0
CIC Tag Write Accesses: 0
CIC Write Accesses: 0
Wobbly critical IP cache stats: 
 Unused entries: 0
CIC Tag Read Accesses: 128979544
CIC Read Accesses: 0
CIC Tag Write Accesses: 152850
CIC Write Accesses: 0
ITLB TOTAL     ACCESS:   10306110  HIT:    9789938  MISS:     516172  HIT %:    94.9916  MISS %:    5.00841   MPKI: 10.3234
ITLB LOAD TRANSLATION ACCESS:    8794844  HIT:    8717181  MISS:      77663  HIT %:    99.1169  MISS %:   0.883051   MPKI: 1.55326
ITLB TRANSLATION FROM L1D PREFETCHER ACCESS:    1511266  HIT:    1072757  MISS:     438509  HIT %:     70.984  MISS %:     29.016   MPKI: 8.77018
ITLB PREFETCH  REQUESTED:          0  ISSUED:          0  USEFUL:     341717  USELESS:      96796
ITLB USEFUL LOAD PREFETCHES:     341717 PREFETCH ISSUED TO LOWER LEVEL:          0  ACCURACY: inf
ITLB TIMELY PREFETCHES:     341717 LATE PREFETCHES: 213 DROPPED PREFETCHES: 2838
ITLB PREFETCHES SAME FILL-ORIGIN LEVEL: 0 DIFFERENT FILL-ORIGIN LEVEL: 0
ITLB AVERAGE MISS LATENCY: 22919.5 cycles
ITLB RQ	ACCESS:   14179991	FORWARD:          0	MERGED:    3836993	TO_CACHE:   10342998

DTLB TOTAL     ACCESS:   10186307  HIT:    9802668  MISS:     383639  HIT %:    96.2338  MISS %:    3.76622   MPKI: 7.67278
DTLB LOAD TRANSLATION ACCESS:   10186307  HIT:    9802668  MISS:     383639  HIT %:    96.2338  MISS %:    3.76622   MPKI: 7.67278
DTLB PREFETCH  REQUESTED:          0  ISSUED:          0  USEFUL:          0  USELESS:          0
DTLB USEFUL LOAD PREFETCHES:          0 PREFETCH ISSUED TO LOWER LEVEL:          0  ACCURACY: -nan
DTLB TIMELY PREFETCHES:          0 LATE PREFETCHES: 0 DROPPED PREFETCHES: 0
DTLB PREFETCHES SAME FILL-ORIGIN LEVEL: 0 DIFFERENT FILL-ORIGIN LEVEL: 0
DTLB AVERAGE MISS LATENCY: 9.37857 cycles
DTLB RQ	ACCESS:   13094399	FORWARD:          0	MERGED:    2886192	TO_CACHE:   10208207

STLB TOTAL     ACCESS:     899811  HIT:     897779  MISS:       2032  HIT %:    99.7742  MISS %:   0.225825   MPKI: 0.04064
STLB LOAD TRANSLATION ACCESS:     461089  HIT:     459204  MISS:       1885  HIT %:    99.5912  MISS %:   0.408815   MPKI: 0.0377
STLB TRANSLATION FROM L1D PREFETCHER ACCESS:     438722  HIT:     438575  MISS:        147  HIT %:    99.9665  MISS %:  0.0335064   MPKI: 0.00294
STLB PREFETCH  REQUESTED:          0  ISSUED:          0  USEFUL:        133  USELESS:         14
STLB USEFUL LOAD PREFETCHES:        133 PREFETCH ISSUED TO LOWER LEVEL:          0  ACCURACY: inf
STLB TIMELY PREFETCHES:        133 LATE PREFETCHES: 0 DROPPED PREFETCHES: 2838
STLB PREFETCHES SAME FILL-ORIGIN LEVEL: 0 DIFFERENT FILL-ORIGIN LEVEL: 0
STLB AVERAGE MISS LATENCY: 76.1289 cycles
STLB RQ	ACCESS:     902649	FORWARD:          0	MERGED:          0	TO_CACHE:     902649

STLB Hit, L1D data hit: 0
STLB Hit, L2C data hit: 0
STLB Hit, LLC data hit: 0
STLB Hit, LLC data miss: 0
STLB STLB hints to L2: 0
L1D TOTAL     ACCESS:   12694009  HIT:   11865498  MISS:     828511  HIT %:    93.4732  MISS %:    6.52679   MPKI: 16.5702
L1D LOAD      ACCESS:    7420824  HIT:    6819903  MISS:     600921  HIT %:    91.9022  MISS %:    8.09777   MPKI: 12.0184
L1D RFO       ACCESS:    5273185  HIT:    5045595  MISS:     227590  HIT %:     95.684  MISS %:    4.31599   MPKI: 4.5518
L1D PREFETCH  REQUESTED:          0  ISSUED:          0  USEFUL:          0  USELESS:          0
L1D USEFUL LOAD PREFETCHES:          0 PREFETCH ISSUED TO LOWER LEVEL:          0  ACCURACY: -nan
L1D TIMELY PREFETCHES:          0 LATE PREFETCHES: 0 DROPPED PREFETCHES: 0
L1D PREFETCHES SAME FILL-ORIGIN LEVEL: 0 DIFFERENT FILL-ORIGIN LEVEL: 0
L1D AVERAGE MISS LATENCY: 25.3576 cycles
L1D RQ	ACCESS:   10332019	FORWARD:          0	MERGED:    2772396	TO_CACHE:    7452385
L1D WQ	ACCESS:    5697707	FORWARD:     107238	MERGED:      55693	TO_CACHE:    5642014

L1D UNIQUE REGIONS ACCESSED: 0
L1D REGIONS CONFLICTS: 0
L1D Cross Page Prefetch Requests: 0
L1D Same Page Prefetch Requests: 0
L1D ROI Sum of L1D PQ occupancy: 0
L1D PREFETCHES PUSHED FROM L2C: 0
L1I TOTAL     ACCESS:   14059228  HIT:   10942672  MISS:    3116556  HIT %:    77.8327  MISS %:    22.1673   MPKI: 62.3311
L1I LOAD      ACCESS:    9935382  HIT:    9704144  MISS:     231238  HIT %:    97.6726  MISS %:    2.32742   MPKI: 4.62476
L1I PREFETCH  ACCESS:    4123846  HIT:    1238528  MISS:    2885318  HIT %:    30.0333  MISS %:    69.9667   MPKI: 57.7064
L1I PREFETCH  REQUESTED:    4335218  ISSUED:    4323339  USEFUL:    1947361  USELESS:     937901
L1I USEFUL LOAD PREFETCHES:    1947361 PREFETCH ISSUED TO LOWER LEVEL:    2910206  ACCURACY: 66.9149
L1I TIMELY PREFETCHES:    1947361 LATE PREFETCHES: 24781 DROPPED PREFETCHES: 6732
L1I PREFETCHES SAME FILL-ORIGIN LEVEL: 2910206 DIFFERENT FILL-ORIGIN LEVEL: 0
L1I AVERAGE MISS LATENCY: 472553 cycles
L1I RQ	ACCESS:   13359432	FORWARD:          0	MERGED:    3404041	TO_CACHE:    9955391
L1I PQ	ACCESS:    4323339	FORWARD:          0	MERGED:      98739	TO_CACHE:    4224600

BTB TOTAL     ACCESS:    6534034  HIT:    5095597  MISS:    1438437  HIT %:    77.9855  MISS %:    22.0145   MPKI: 28.7687
BTB BRANCH_DIRECT_JUMP	ACCESS:     487044  HIT:     364834  MISS:     122210
BTB BRANCH_INDIRECT	ACCESS:     169158  HIT:     142414  MISS:      26744
BTB BRANCH_CONDITIONAL	ACCESS:    4098719  HIT:    3717570  MISS:     381149
BTB BRANCH_DIRECT_CALL	ACCESS:     755585  HIT:     471450  MISS:     284135
BTB BRANCH_INDIRECT_CALL	ACCESS:     133962  HIT:      76124  MISS:      57838
BTB BRANCH_RETURN	ACCESS:     889566  HIT:     323205  MISS:     566361
BTB BRANCH_OTHER ACCESS:          0  HIT:          0  MISS:          0

L2C TOTAL     ACCESS:    4341563  HIT:    3914414  MISS:     427149  HIT %:    90.1614  MISS %:     9.8386   MPKI: 8.54298
L2C LOAD      ACCESS:     807319  HIT:     669016  MISS:     138303  HIT %:    82.8689  MISS %:    17.1311   MPKI: 2.76606
L2C DATA LOAD MPKI: 2.19312
L2C INSTRUCTION LOAD MPKI: 0.57294
L2C RFO       ACCESS:     227586  HIT:     177604  MISS:      49982  HIT %:    78.0382  MISS %:    21.9618   MPKI: 0.99964
L2C PREFETCH  ACCESS:    2913218  HIT:    2694012  MISS:     219206  HIT %:    92.4755  MISS %:    7.52453   MPKI: 4.38412
L2C DATA PREFETCH MPKI: 0.02306
L2C INSTRUCTION PREFETCH MPKI: 4.36106
L2C WRITEBACK ACCESS:     386395  HIT:     368514  MISS:      17881  HIT %:    95.3724  MISS %:    4.62765   MPKI: 0.35762
L2C LOAD TRANSLATION ACCESS:       2102  HIT:        588  MISS:       1514  HIT %:    27.9734  MISS %:    72.0266   MPKI: 0.03028
L2C TRANSLATION FROM L1D PREFETCHER ACCESS:       4943  HIT:       4680  MISS:        263  HIT %:    94.6793  MISS %:    5.32066   MPKI: 0.00526
L2C PREFETCH  REQUESTED:       3247  ISSUED:       3247  USEFUL:       7418  USELESS:     210668
L2C USEFUL LOAD PREFETCHES:       7418 PREFETCH ISSUED TO LOWER LEVEL:     219294  ACCURACY: 3.38267
L2C TIMELY PREFETCHES:       7418 LATE PREFETCHES: 88 DROPPED PREFETCHES: 0
L2C PREFETCHES SAME FILL-ORIGIN LEVEL: 1241 DIFFERENT FILL-ORIGIN LEVEL: 0
L2C AVERAGE MISS LATENCY: 38.1618 cycles
L2C RQ	ACCESS:    1042013	FORWARD:          0	MERGED:          0	TO_CACHE:    1041950
L2C WQ	ACCESS:     386395	FORWARD:         63	MERGED:          0	TO_CACHE:     386395
L2C PQ	ACCESS:    2913347	FORWARD:          0	MERGED:          0	TO_CACHE:    2913347

L2C Instructions Evicting Data 97777
L2C Translations Evicting Data 1105
L2C Data Evicting Data 74492
L2C Instructions Evicting Instructions 148211
L2C Translations Evicting Instructions 655
L2C Data Evicting Instructions 85253
L2C Instructions Evicting Translations 712
L2C Translations Evicting Translations 17
L2C Data Evicting Translations 1046
L2C Dense regions hint from L2: 0
PSCL5 TOTAL     ACCESS:       4870  HIT:       4870  MISS:          0  HIT %:        100  MISS %:          0   MPKI: 0
PSCL5 LOAD TRANSLATION ACCESS:       1885  HIT:       1885  MISS:          0  HIT %:        100  MISS %:          0   MPKI: 0
PSCL5 TRANSLATION FROM L1D PREFETCHER ACCESS:       2985  HIT:       2985  MISS:          0  HIT %:        100  MISS %:          0   MPKI: 0
PSCL5 PREFETCH  REQUESTED:          0  ISSUED:          0  USEFUL:          0  USELESS:          0
PSCL5 USEFUL LOAD PREFETCHES:          0 PREFETCH ISSUED TO LOWER LEVEL:          0  ACCURACY: -nan
PSCL5 TIMELY PREFETCHES:          0 LATE PREFETCHES: 0 DROPPED PREFETCHES: 0
PSCL5 PREFETCHES SAME FILL-ORIGIN LEVEL: 0 DIFFERENT FILL-ORIGIN LEVEL: 0

PSCL4 TOTAL     ACCESS:       4570  HIT:       4558  MISS:         12  HIT %:    99.7374  MISS %:   0.262582   MPKI: 0.00024
PSCL4 LOAD TRANSLATION ACCESS:       1667  HIT:       1655  MISS:         12  HIT %:    99.2801  MISS %:   0.719856   MPKI: 0.00024
PSCL4 TRANSLATION FROM L1D PREFETCHER ACCESS:       2903  HIT:       2903  MISS:          0  HIT %:        100  MISS %:          0   MPKI: 0
PSCL4 PREFETCH  REQUESTED:          0  ISSUED:          0  USEFUL:          0  USELESS:          0
PSCL4 USEFUL LOAD PREFETCHES:          0 PREFETCH ISSUED TO LOWER LEVEL:          0  ACCURACY: -nan
PSCL4 TIMELY PREFETCHES:          0 LATE PREFETCHES: 0 DROPPED PREFETCHES: 0
PSCL4 PREFETCHES SAME FILL-ORIGIN LEVEL: 0 DIFFERENT FILL-ORIGIN LEVEL: 0

PSCL3 TOTAL     ACCESS:       4744  HIT:       4732  MISS:         12  HIT %:     99.747  MISS %:   0.252951   MPKI: 0.00024
PSCL3 LOAD TRANSLATION ACCESS:       1841  HIT:       1829  MISS:         12  HIT %:    99.3482  MISS %:    0.65182   MPKI: 0.00024
PSCL3 TRANSLATION FROM L1D PREFETCHER ACCESS:       2903  HIT:       2903  MISS:          0  HIT %:        100  MISS %:          0   MPKI: 0
PSCL3 PREFETCH  REQUESTED:          0  ISSUED:          0  USEFUL:          0  USELESS:          0
PSCL3 USEFUL LOAD PREFETCHES:          0 PREFETCH ISSUED TO LOWER LEVEL:          0  ACCURACY: -nan
PSCL3 TIMELY PREFETCHES:          0 LATE PREFETCHES: 0 DROPPED PREFETCHES: 0
PSCL3 PREFETCHES SAME FILL-ORIGIN LEVEL: 0 DIFFERENT FILL-ORIGIN LEVEL: 0

PSCL2 TOTAL     ACCESS:       3048  HIT:       2821  MISS:        227  HIT %:    92.5525  MISS %:    7.44751   MPKI: 0.00454
PSCL2 LOAD TRANSLATION ACCESS:       1915  HIT:       1688  MISS:        227  HIT %:    88.1462  MISS %:    11.8538   MPKI: 0.00454
PSCL2 TRANSLATION FROM L1D PREFETCHER ACCESS:       1133  HIT:       1133  MISS:          0  HIT %:        100  MISS %:          0   MPKI: 0
PSCL2 PREFETCH  REQUESTED:          0  ISSUED:          0  USEFUL:          0  USELESS:          0
PSCL2 USEFUL LOAD PREFETCHES:          0 PREFETCH ISSUED TO LOWER LEVEL:          0  ACCURACY: -nan
PSCL2 TIMELY PREFETCHES:          0 LATE PREFETCHES: 0 DROPPED PREFETCHES: 0
PSCL2 PREFETCHES SAME FILL-ORIGIN LEVEL: 0 DIFFERENT FILL-ORIGIN LEVEL: 0

LLC TOTAL     ACCESS:     481522  HIT:     455486  MISS:      26036  HIT %:     94.593  MISS %:    5.40702   MPKI: 0.52072
LLC LOAD      ACCESS:     138213  HIT:     128203  MISS:      10010  HIT %:    92.7576  MISS %:    7.24244   MPKI: 0.2002
LLC RFO       ACCESS:      49982  HIT:      35483  MISS:      14499  HIT %:    70.9916  MISS %:    29.0084   MPKI: 0.28998
LLC PREFETCH  ACCESS:     219294  HIT:     218220  MISS:       1074  HIT %:    99.5102  MISS %:   0.489753   MPKI: 0.02148
LLC WRITEBACK ACCESS:      72256  HIT:      71940  MISS:        316  HIT %:    99.5627  MISS %:   0.437334   MPKI: 0.00632
LLC LOAD TRANSLATION ACCESS:       1514  HIT:       1397  MISS:        117  HIT %:    92.2721  MISS %:    7.72787   MPKI: 0.00234
LLC TRANSLATION FROM L1D PREFETCHER ACCESS:        263  HIT:        243  MISS:         20  HIT %:    92.3954  MISS %:    7.60456   MPKI: 0.0004
LLC PREFETCH  REQUESTED:          0  ISSUED:          0  USEFUL:        762  USELESS:       4078
LLC USEFUL LOAD PREFETCHES:        762 PREFETCH ISSUED TO LOWER LEVEL:       1074  ACCURACY: 70.9497
LLC TIMELY PREFETCHES:        762 LATE PREFETCHES: 0 DROPPED PREFETCHES: 0
LLC PREFETCHES SAME FILL-ORIGIN LEVEL: 0 DIFFERENT FILL-ORIGIN LEVEL: 0
LLC AVERAGE MISS LATENCY: 153.25 cycles
LLC RQ	ACCESS:     189974	FORWARD:          0	MERGED:          0	TO_CACHE:     189972
LLC WQ	ACCESS:      72256	FORWARD:          2	MERGED:          0	TO_CACHE:      72256
LLC PQ	ACCESS:     219294	FORWARD:          0	MERGED:          0	TO_CACHE:     219294

LLC Dense regions hint to LLC: 0

RAW hits: 800291
Loads Generated: 11132312
Loads sent to L1D: 10332019
Stores Generated: 5697707
Stores sent to L1D: 5697707
Major fault: 0 Minor fault: 2472
Allocated PAGES: 2472
I-Shadow cache 408 bytes
Touched + WorthPF tables 6144 bytes 
MMA filter 174 bytes 
FNL filter 272 bytes 
TOTAL PREFETCHER STORAGE SIZE: 25174 bytes
CPU 0 L1I next line prefetcher final stats
[Bingo] PHT Access: 585
[Bingo] PHT Hit PC+Addr: 373
[Bingo] PHT Hit PC+Offs: 135
[Bingo] PHT Miss: 77
[Bingo] Prefetch PC+Addr: 0
[Bingo] Prefetch PC+Offs: 0
[Bingo] Useful PC+Addr: 0
[Bingo] Useful PC+Offs: 0
[Bingo] Useless PC+Addr: 0
[Bingo] Useless PC+Offs: 0
[Bingo] L1 Prefetch per Region: 0
[Bingo] L2 Prefetch per Region: 7.39173
[Bingo] L3 Prefetch per Region: 0
[Bingo] No Prefetch per Region: 24.6083
[Bingo] Number of Voters Mean: 4.84444
[Bingo] Number of Voters SD: 61.5573
PHT read accesses: 2239
PHT write accesses: 466
AT read accesses: 3703
AT write accesses: 3629
FT read accesses: 1489
FT write accesses: 585
PS read accesses: 1018
PS write accesses: 508
PHT tag read accesses: 12446
PHT tag write accesses: 839
AT tag read accesses: 6909128
AT tag write accesses: 4095
FT tag read accesses: 6867135
FT tag write accesses: 1648
PS tag read accesses: 78526
PS tag write accesses: 1526

DRAM Statistics
 CHANNEL 0
 RQ ROW_BUFFER_HIT:       9558  ROW_BUFFER_MISS:      16158
 DBUS_CONGESTED:          3
 WQ ROW_BUFFER_HIT:       1373  ROW_BUFFER_MISS:      11764  FULL:          0

 AVG_CONGESTED_CYCLE: 5
 All warmup complete: 2
Channel 0 Bank busy for read cycles: 0
Channel 0 Bank busy for write cycles: 0
Channel 0
Rank 0
0banks busy for read cycles: 75362063
0banks busy for write cycles: 3013
1banks busy for read cycles: 1240657
1banks busy for write cycles: 424290
2banks busy for read cycles: 135388
2banks busy for write cycles: 144061
3banks busy for read cycles: 50077
3banks busy for write cycles: 97900
4banks busy for read cycles: 29935
4banks busy for write cycles: 89190
5banks busy for read cycles: 24251
5banks busy for write cycles: 80895
6banks busy for read cycles: 30047
6banks busy for write cycles: 77050
7banks busy for read cycles: 32812
7banks busy for write cycles: 54429
8banks busy for read cycles: 75043
8banks busy for write cycles: 82943

CPU 0 Branch Prediction Accuracy: 99.7225% MPKI: 0.50376 Average ROB Occupancy at Mispredict: 59.7286
Branch types
NOT_BRANCH: 40923872 81.8477%
BRANCH_DIRECT_JUMP: 487044 0.974088%
BRANCH_INDIRECT: 169158 0.338316%
BRANCH_CONDITIONAL: 6640823 13.2816%
BRANCH_DIRECT_CALL: 755585 1.51117%
BRANCH_INDIRECT_CALL: 133962 0.267924%
BRANCH_RETURN: 889566 1.77913%
BRANCH_OTHER: 0 0%

DRAM PAGES: 1048576
Allocated PAGES: 2472
