Initialize SIGNATURE TABLE
ST_SET: 1
ST_WAY: 16
ST_TAG_BIT: 16
ST_TAG_MASK: ffff

Initialize PATTERN TABLE
PT_SET: 16
PT_WAY: 4
SIG_DELTA_BIT: 7
C_SIG_BIT: 4
C_DELTA_BIT: 4

Initialize PREFETCH FILTER
FILTER_SET: 1024

Initialize PERCEPTRON
PERC_ENTRIES: 4096
PERC_FEATURES: 9

*** ChampSim Multicore Out-of-Order Simulator ***

Warmup Instructions: 50000000
Simulation Instructions: 50000000
Number of CPUs: 1
LLC sets: 2048
LLC ways: 16
Off-chip DRAM Size: 4096 MB Channels: 1 Width: 64-bit Data Rate: 6400 MT/s
CPU 0 runs ../IPC-traces//server_019.champsimtrace.xz
.xz
BTB has LRU replacement policy
ITLB has LRU replacement policy
DTLB has LRU replacement policy
STLB has LRU replacement policy
CPU 0 L1I next line prefetcher
L1I has LRU replacement policy
L1D has LRU replacement policy
Initialize SRRIP state for L2C
Initialize DRRIP state for LLC
Heartbeat CPU 0 instructions: 10000002 cycles: 3283271 heartbeat IPC: 3.04574 cumulative IPC: 3.04574 (Simulation time: 0 hr 3 min 31 sec) 
Heartbeat CPU 0 instructions: 20000001 cycles: 6565859 heartbeat IPC: 3.04638 cumulative IPC: 3.04606 (Simulation time: 0 hr 6 min 19 sec) 
Heartbeat CPU 0 instructions: 30000001 cycles: 9852132 heartbeat IPC: 3.04296 cumulative IPC: 3.04503 (Simulation time: 0 hr 9 min 9 sec) 
Heartbeat CPU 0 instructions: 40000002 cycles: 13146030 heartbeat IPC: 3.03592 cumulative IPC: 3.04274 (Simulation time: 0 hr 11 min 37 sec) 
Heartbeat CPU 0 instructions: 50000001 cycles: 16432947 heartbeat IPC: 3.04236 cumulative IPC: 3.04267 (Simulation time: 0 hr 13 min 50 sec) 

Warmup complete CPU 0 instructions: 50000001 cycles: 16432947 (Simulation time: 0 hr 13 min 50 sec) 

Heartbeat CPU 0 instructions: 60000003 cycles: 38331001 heartbeat IPC: 0.456662 cumulative IPC: 0.456662 (Simulation time: 0 hr 17 min 51 sec) 
Heartbeat CPU 0 instructions: 70000002 cycles: 64375027 heartbeat IPC: 0.383965 cumulative IPC: 0.41717 (Simulation time: 0 hr 21 min 33 sec) 
Heartbeat CPU 0 instructions: 80000001 cycles: 89597465 heartbeat IPC: 0.396472 cumulative IPC: 0.410035 (Simulation time: 0 hr 25 min 21 sec) 
Heartbeat CPU 0 instructions: 90000001 cycles: 110881845 heartbeat IPC: 0.469828 cumulative IPC: 0.423509 (Simulation time: 0 hr 30 min 44 sec) 
Heartbeat CPU 0 instructions: 100000002 cycles: 131090887 heartbeat IPC: 0.494828 cumulative IPC: 0.43608 (Simulation time: 0 hr 35 min 19 sec) 
Finished CPU 0 instructions: 50000001 cycles: 114657940 cumulative IPC: 0.43608 (Simulation time: 0 hr 35 min 19 sec) 

ChampSim completed all CPUs

Region of Interest Statistics

CPU 0 cumulative IPC: 0.43608 instructions: 50000001 cycles: 114657940

CPU 0 Average Load ROB stall cycles: 3.46943e+07
CPU 0 Fraction of times ROB stalled by Loads: 45.8438
CPU 0 Percentage of Load stall cycles in Total stall cycles: 2.51979e+08
Issued all: 50651736
Issued LT all: 45249111
rob_not_full_when_issued_lt_all: 17160064
Issued LT one: 39631010
rob_not_full_when_issued_lt_one: 13261673
FVP critical_dynamic_instances_0: 3082301
FVP unique_critical_ips_0: 3129
 Total stall cycles: 96612019
 Total load stall cycles: 243442374705461
Unique Load IPs: 7411
CPU 0 NUM of IPS identified critical: 0
CPU 0 Num of Load IPs stalling ROB: 0
Threshold modification factor: 0
Trouble in retire width: -nan
MaC = Marked as critical.
lt_50_percent_before_Mac: 0
gt_90_percent_before_Mac: 0
gt_75_percent_before_Mac: 0
gt_50_percent_before_Mac: 0
stall_proportion_bin_same_before_after: 0
stall_proportion_bin_lower_before_after: 0
stall_proportion_bin_upper_before_after: 0
average_stall_proportion_before: -nan
average_stall_proportion_after: -nan
Critical IP stalls, total frequency: 0
Non-critical IP stalls, total frequency: 0
Total Freq all stalling IPs: 0
Critical_IP_Detector_Accuracy_70: 0.000319591
Critical_IP_Detector_Accuracy_80: 0.000319591
Critical_IP_Detector_Accuracy_90: 0.000319591
Critical_IP_Detector_Coverage_70: 1
Critical_IP_Detector_Coverage_80: 1
Critical_IP_Detector_Coverage_90: 1
stat_90_percent_critical_ip_stalls_freq: 253314
stat_90_percent_non_critical_ip_stalls_freq: 18446744073709298302
AVERAGE_ROB_Occupancy_90_Percent_Critical_IP_Stalls: 154.903
AVERAGE_ROB_Occupancy_90_Percent_Non_Critical_IP_Stalls: 3.12144e-11
Critical_IP_ROB_Stalls_Bucket_0: 0
Non-critical_IP_ROB_Stalls_Bucket_0: 468327
Critical_IP_ROB_Stalls_Bucket_1: 0
Non-critical_IP_ROB_Stalls_Bucket_1: 581582
Critical_IP_ROB_Stalls_Bucket_2: 0
Non-critical_IP_ROB_Stalls_Bucket_2: 467471
Critical_IP_ROB_Stalls_Bucket_3: 0
Non-critical_IP_ROB_Stalls_Bucket_3: 329328
Critical_IP_ROB_Stalls_Bucket_4: 0
Non-critical_IP_ROB_Stalls_Bucket_4: 181988
Critical_IP_ROB_Stalls_Bucket_5: 0
Non-critical_IP_ROB_Stalls_Bucket_5: 167681
Critical_IP_ROB_Stalls_Bucket_6: 0
Non-critical_IP_ROB_Stalls_Bucket_6: 1020386
0 => IPs accounting for >50 percent of stalls, 1 => 55, 2 => 60, 3 => 65 and so on till 90.
percent50: inf num IPs:  1
percent55: inf num IPs: 1
percent60: inf num IPs: 1
percent65: inf num IPs: 1
percent70: inf num IPs: 1
percent75: inf num IPs: 1
percent80: inf num IPs: 1
percent85: inf num IPs: 1
percent90: inf num IPs: 1
Critical_ROB_Stalls_Percent_0_Bucket_0: 19834
Non-critical_ROB_Stalls_Percent_0_Bucket_0: 448493
Critical_ROB_Stalls_Percent_0_Bucket_1: 37769
Non-critical_ROB_Stalls_Percent_0_Bucket_1: 543813
Critical_ROB_Stalls_Percent_0_Bucket_2: 91414
Non-critical_ROB_Stalls_Percent_0_Bucket_2: 376057
Critical_ROB_Stalls_Percent_0_Bucket_3: 42661
Non-critical_ROB_Stalls_Percent_0_Bucket_3: 286667
Critical_ROB_Stalls_Percent_0_Bucket_4: 28811
Non-critical_ROB_Stalls_Percent_0_Bucket_4: 153177
Critical_ROB_Stalls_Percent_0_Bucket_5: 15040
Non-critical_ROB_Stalls_Percent_0_Bucket_5: 152641
Critical_ROB_Stalls_Percent_0_Bucket_6: 17785
Non-critical_ROB_Stalls_Percent_0_Bucket_6: 1002601
Critical_ROB_Stalls_Percent_1_Bucket_0: 19834
Non-critical_ROB_Stalls_Percent_1_Bucket_0: 448493
Critical_ROB_Stalls_Percent_1_Bucket_1: 37769
Non-critical_ROB_Stalls_Percent_1_Bucket_1: 543813
Critical_ROB_Stalls_Percent_1_Bucket_2: 91414
Non-critical_ROB_Stalls_Percent_1_Bucket_2: 376057
Critical_ROB_Stalls_Percent_1_Bucket_3: 42661
Non-critical_ROB_Stalls_Percent_1_Bucket_3: 286667
Critical_ROB_Stalls_Percent_1_Bucket_4: 28811
Non-critical_ROB_Stalls_Percent_1_Bucket_4: 153177
Critical_ROB_Stalls_Percent_1_Bucket_5: 15040
Non-critical_ROB_Stalls_Percent_1_Bucket_5: 152641
Critical_ROB_Stalls_Percent_1_Bucket_6: 17785
Non-critical_ROB_Stalls_Percent_1_Bucket_6: 1002601
Critical_ROB_Stalls_Percent_2_Bucket_0: 19834
Non-critical_ROB_Stalls_Percent_2_Bucket_0: 448493
Critical_ROB_Stalls_Percent_2_Bucket_1: 37769
Non-critical_ROB_Stalls_Percent_2_Bucket_1: 543813
Critical_ROB_Stalls_Percent_2_Bucket_2: 91414
Non-critical_ROB_Stalls_Percent_2_Bucket_2: 376057
Critical_ROB_Stalls_Percent_2_Bucket_3: 42661
Non-critical_ROB_Stalls_Percent_2_Bucket_3: 286667
Critical_ROB_Stalls_Percent_2_Bucket_4: 28811
Non-critical_ROB_Stalls_Percent_2_Bucket_4: 153177
Critical_ROB_Stalls_Percent_2_Bucket_5: 15040
Non-critical_ROB_Stalls_Percent_2_Bucket_5: 152641
Critical_ROB_Stalls_Percent_2_Bucket_6: 17785
Non-critical_ROB_Stalls_Percent_2_Bucket_6: 1002601
Critical_ROB_Stalls_Percent_3_Bucket_0: 19834
Non-critical_ROB_Stalls_Percent_3_Bucket_0: 448493
Critical_ROB_Stalls_Percent_3_Bucket_1: 37769
Non-critical_ROB_Stalls_Percent_3_Bucket_1: 543813
Critical_ROB_Stalls_Percent_3_Bucket_2: 91414
Non-critical_ROB_Stalls_Percent_3_Bucket_2: 376057
Critical_ROB_Stalls_Percent_3_Bucket_3: 42661
Non-critical_ROB_Stalls_Percent_3_Bucket_3: 286667
Critical_ROB_Stalls_Percent_3_Bucket_4: 28811
Non-critical_ROB_Stalls_Percent_3_Bucket_4: 153177
Critical_ROB_Stalls_Percent_3_Bucket_5: 15040
Non-critical_ROB_Stalls_Percent_3_Bucket_5: 152641
Critical_ROB_Stalls_Percent_3_Bucket_6: 17785
Non-critical_ROB_Stalls_Percent_3_Bucket_6: 1002601
Critical_ROB_Stalls_Percent_4_Bucket_0: 19834
Non-critical_ROB_Stalls_Percent_4_Bucket_0: 448493
Critical_ROB_Stalls_Percent_4_Bucket_1: 37769
Non-critical_ROB_Stalls_Percent_4_Bucket_1: 543813
Critical_ROB_Stalls_Percent_4_Bucket_2: 91414
Non-critical_ROB_Stalls_Percent_4_Bucket_2: 376057
Critical_ROB_Stalls_Percent_4_Bucket_3: 42661
Non-critical_ROB_Stalls_Percent_4_Bucket_3: 286667
Critical_ROB_Stalls_Percent_4_Bucket_4: 28811
Non-critical_ROB_Stalls_Percent_4_Bucket_4: 153177
Critical_ROB_Stalls_Percent_4_Bucket_5: 15040
Non-critical_ROB_Stalls_Percent_4_Bucket_5: 152641
Critical_ROB_Stalls_Percent_4_Bucket_6: 17785
Non-critical_ROB_Stalls_Percent_4_Bucket_6: 1002601
Critical_ROB_Stalls_Percent_5_Bucket_0: 19834
Non-critical_ROB_Stalls_Percent_5_Bucket_0: 448493
Critical_ROB_Stalls_Percent_5_Bucket_1: 37769
Non-critical_ROB_Stalls_Percent_5_Bucket_1: 543813
Critical_ROB_Stalls_Percent_5_Bucket_2: 91414
Non-critical_ROB_Stalls_Percent_5_Bucket_2: 376057
Critical_ROB_Stalls_Percent_5_Bucket_3: 42661
Non-critical_ROB_Stalls_Percent_5_Bucket_3: 286667
Critical_ROB_Stalls_Percent_5_Bucket_4: 28811
Non-critical_ROB_Stalls_Percent_5_Bucket_4: 153177
Critical_ROB_Stalls_Percent_5_Bucket_5: 15040
Non-critical_ROB_Stalls_Percent_5_Bucket_5: 152641
Critical_ROB_Stalls_Percent_5_Bucket_6: 17785
Non-critical_ROB_Stalls_Percent_5_Bucket_6: 1002601
Critical_ROB_Stalls_Percent_6_Bucket_0: 19834
Non-critical_ROB_Stalls_Percent_6_Bucket_0: 448493
Critical_ROB_Stalls_Percent_6_Bucket_1: 37769
Non-critical_ROB_Stalls_Percent_6_Bucket_1: 543813
Critical_ROB_Stalls_Percent_6_Bucket_2: 91414
Non-critical_ROB_Stalls_Percent_6_Bucket_2: 376057
Critical_ROB_Stalls_Percent_6_Bucket_3: 42661
Non-critical_ROB_Stalls_Percent_6_Bucket_3: 286667
Critical_ROB_Stalls_Percent_6_Bucket_4: 28811
Non-critical_ROB_Stalls_Percent_6_Bucket_4: 153177
Critical_ROB_Stalls_Percent_6_Bucket_5: 15040
Non-critical_ROB_Stalls_Percent_6_Bucket_5: 152641
Critical_ROB_Stalls_Percent_6_Bucket_6: 17785
Non-critical_ROB_Stalls_Percent_6_Bucket_6: 1002601
Critical_ROB_Stalls_Percent_7_Bucket_0: 19834
Non-critical_ROB_Stalls_Percent_7_Bucket_0: 448493
Critical_ROB_Stalls_Percent_7_Bucket_1: 37769
Non-critical_ROB_Stalls_Percent_7_Bucket_1: 543813
Critical_ROB_Stalls_Percent_7_Bucket_2: 91414
Non-critical_ROB_Stalls_Percent_7_Bucket_2: 376057
Critical_ROB_Stalls_Percent_7_Bucket_3: 42661
Non-critical_ROB_Stalls_Percent_7_Bucket_3: 286667
Critical_ROB_Stalls_Percent_7_Bucket_4: 28811
Non-critical_ROB_Stalls_Percent_7_Bucket_4: 153177
Critical_ROB_Stalls_Percent_7_Bucket_5: 15040
Non-critical_ROB_Stalls_Percent_7_Bucket_5: 152641
Critical_ROB_Stalls_Percent_7_Bucket_6: 17785
Non-critical_ROB_Stalls_Percent_7_Bucket_6: 1002601
Critical_ROB_Stalls_Percent_8_Bucket_0: 19834
Non-critical_ROB_Stalls_Percent_8_Bucket_0: 448493
Critical_ROB_Stalls_Percent_8_Bucket_1: 37769
Non-critical_ROB_Stalls_Percent_8_Bucket_1: 543813
Critical_ROB_Stalls_Percent_8_Bucket_2: 91414
Non-critical_ROB_Stalls_Percent_8_Bucket_2: 376057
Critical_ROB_Stalls_Percent_8_Bucket_3: 42661
Non-critical_ROB_Stalls_Percent_8_Bucket_3: 286667
Critical_ROB_Stalls_Percent_8_Bucket_4: 28811
Non-critical_ROB_Stalls_Percent_8_Bucket_4: 153177
Critical_ROB_Stalls_Percent_8_Bucket_5: 15040
Non-critical_ROB_Stalls_Percent_8_Bucket_5: 152641
Critical_ROB_Stalls_Percent_8_Bucket_6: 17785
Non-critical_ROB_Stalls_Percent_8_Bucket_6: 1002601
Average ROB occupancy Load Stall Begin: 181.977
Average ROB occupancy Load Stall End: 191.2
Min ROB occupancy Load Stall Begin: 1
Max ROB occupancy Load Stall Begin: 352
Min ROB occupancy Load Stall End: 1
Max ROB occupancy Load Stall End: 352
Average ROB occupancy Critical Load Stall Begin: -nan
Average ROB occupancy Critical Load Stall End: -nan
Min ROB occupancy Critical Load Stall Begin: 400
Max ROB occupancy Critical Load Stall Begin: 0
Min ROB occupancy Critical Load Stall End: 400
Max ROB occupancy Critical Load Stall End: 0
 ROB Load Stall Begin Bucket Count 0: 659859
 ROB Load Stall End Bucket Count 0: 468327
 ROB Critical Load Stall Begin Bucket Count 0: 0
 ROB Critical Load Stall End Bucket Count 0: 0
 ROB Load Stall Begin Bucket Count 1: 537702
 ROB Load Stall End Bucket Count 1: 581582
 ROB Critical Load Stall Begin Bucket Count 1: 0
 ROB Critical Load Stall End Bucket Count 1: 0
 ROB Load Stall Begin Bucket Count 2: 423130
 ROB Load Stall End Bucket Count 2: 467471
 ROB Critical Load Stall Begin Bucket Count 2: 0
 ROB Critical Load Stall End Bucket Count 2: 0
 ROB Load Stall Begin Bucket Count 3: 275456
 ROB Load Stall End Bucket Count 3: 329328
 ROB Critical Load Stall Begin Bucket Count 3: 0
 ROB Critical Load Stall End Bucket Count 3: 0
 ROB Load Stall Begin Bucket Count 4: 169048
 ROB Load Stall End Bucket Count 4: 181988
 ROB Critical Load Stall Begin Bucket Count 4: 0
 ROB Critical Load Stall End Bucket Count 4: 0
 ROB Load Stall Begin Bucket Count 5: 164543
 ROB Load Stall End Bucket Count 5: 167681
 ROB Critical Load Stall Begin Bucket Count 5: 0
 ROB Critical Load Stall End Bucket Count 5: 0
 ROB Load Stall Begin Bucket Count 6: 987025
 ROB Load Stall End Bucket Count 6: 1020386
 ROB Critical Load Stall Begin Bucket Count 6: 0
 ROB Critical Load Stall End Bucket Count 6: 0
PIST Tag Read Accesses: 0
PIST Read Accesses: 0
PIST Tag Write Accesses: 0
PIST Write Accesses: 0
Criticality detector called times: 0
Max global_stall_cycles_count: 0
Threshold Modified: 0 times, factor: 0
ITLB TOTAL     ACCESS:   10105690  HIT:    9671580  MISS:     434110  HIT %:    95.7043  MISS %:     4.2957   MPKI: 8.6822
ITLB LOAD TRANSLATION ACCESS:    8363105  HIT:    8351316  MISS:      11789  HIT %:     99.859  MISS %:   0.140964   MPKI: 0.23578
ITLB TRANSLATION FROM L1D PREFETCHER ACCESS:    1742585  HIT:    1320264  MISS:     422321  HIT %:    75.7647  MISS %:    24.2353   MPKI: 8.44642
ITLB PREFETCH  REQUESTED:          0  ISSUED:          0  USEFUL:     374233  USELESS:      48084
ITLB USEFUL LOAD PREFETCHES:     374233 PREFETCH ISSUED TO LOWER LEVEL:          0  ACCURACY: inf
ITLB TIMELY PREFETCHES:     374233 LATE PREFETCHES: 275 DROPPED PREFETCHES: 90
ITLB PREFETCHES SAME FILL-ORIGIN LEVEL: 0 DIFFERENT FILL-ORIGIN LEVEL: 0
ITLB AVERAGE MISS LATENCY: 44527.2 cycles
ITLB RQ	ACCESS:   14260294	FORWARD:          0	MERGED:    4110401	TO_CACHE:   10149893

DTLB TOTAL     ACCESS:   10554642  HIT:   10112195  MISS:     442447  HIT %:     95.808  MISS %:    4.19197   MPKI: 8.84894
DTLB LOAD TRANSLATION ACCESS:   10554642  HIT:   10112195  MISS:     442447  HIT %:     95.808  MISS %:    4.19197   MPKI: 8.84894
DTLB PREFETCH  REQUESTED:          0  ISSUED:          0  USEFUL:          0  USELESS:          0
DTLB USEFUL LOAD PREFETCHES:          0 PREFETCH ISSUED TO LOWER LEVEL:          0  ACCURACY: -nan
DTLB TIMELY PREFETCHES:          0 LATE PREFETCHES: 0 DROPPED PREFETCHES: 0
DTLB PREFETCHES SAME FILL-ORIGIN LEVEL: 0 DIFFERENT FILL-ORIGIN LEVEL: 0
DTLB AVERAGE MISS LATENCY: 26.8286 cycles
DTLB RQ	ACCESS:   15310256	FORWARD:          0	MERGED:    4674918	TO_CACHE:   10635338

STLB TOTAL     ACCESS:     876557  HIT:     810509  MISS:      66048  HIT %:    92.4651  MISS %:    7.53493   MPKI: 1.32096
STLB LOAD TRANSLATION ACCESS:     453961  HIT:     388862  MISS:      65099  HIT %:    85.6598  MISS %:    14.3402   MPKI: 1.30198
STLB TRANSLATION FROM L1D PREFETCHER ACCESS:     422596  HIT:     421647  MISS:        949  HIT %:    99.7754  MISS %:   0.224564   MPKI: 0.01898
STLB PREFETCH  REQUESTED:          0  ISSUED:          0  USEFUL:        738  USELESS:        229
STLB USEFUL LOAD PREFETCHES:        738 PREFETCH ISSUED TO LOWER LEVEL:          0  ACCURACY: inf
STLB TIMELY PREFETCHES:        738 LATE PREFETCHES: 0 DROPPED PREFETCHES: 90
STLB PREFETCHES SAME FILL-ORIGIN LEVEL: 0 DIFFERENT FILL-ORIGIN LEVEL: 0
STLB AVERAGE MISS LATENCY: 124.184 cycles
STLB RQ	ACCESS:     876647	FORWARD:          0	MERGED:          0	TO_CACHE:     876647

STLB Hit, L1D data hit: 0
STLB Hit, L2C data hit: 0
STLB Hit, LLC data hit: 0
STLB Hit, LLC data miss: 0
STLB STLB hints to L2: 0
L1D TOTAL     ACCESS:   13246279  HIT:   11457466  MISS:    1788813  HIT %:    86.4957  MISS %:    13.5043   MPKI: 35.7763
L1D LOAD      ACCESS:    7269774  HIT:    6396278  MISS:     873496  HIT %:    87.9846  MISS %:    12.0154   MPKI: 17.4699
L1D RFO       ACCESS:    5976505  HIT:    5061188  MISS:     915317  HIT %:    84.6847  MISS %:    15.3153   MPKI: 18.3063
L1D PREFETCH  REQUESTED:          0  ISSUED:          0  USEFUL:          0  USELESS:          0
L1D USEFUL LOAD PREFETCHES:          0 PREFETCH ISSUED TO LOWER LEVEL:          0  ACCURACY: -nan
L1D TIMELY PREFETCHES:          0 LATE PREFETCHES: 0 DROPPED PREFETCHES: 0
L1D PREFETCHES SAME FILL-ORIGIN LEVEL: 0 DIFFERENT FILL-ORIGIN LEVEL: 0
L1D AVERAGE MISS LATENCY: 160.3 cycles
L1D RQ	ACCESS:   10684996	FORWARD:          0	MERGED:    3273778	TO_CACHE:    7304679
L1D WQ	ACCESS:    8106889	FORWARD:     106539	MERGED:     101312	TO_CACHE:    8005577

L1D UNIQUE REGIONS ACCESSED: 0
L1D REGIONS CONFLICTS: 0
L1D Cross Page Prefetch Requests: 0
L1D Same Page Prefetch Requests: 0
L1D ROI Sum of L1D PQ occupancy: 0
L1D PREFETCHES PUSHED FROM L2C: 0
L1I TOTAL     ACCESS:   14170119  HIT:   11362112  MISS:    2808007  HIT %:    80.1836  MISS %:    19.8164   MPKI: 56.1601
L1I LOAD      ACCESS:    9728180  HIT:    9702774  MISS:      25406  HIT %:    99.7388  MISS %:   0.261159   MPKI: 0.50812
L1I PREFETCH  ACCESS:    4441939  HIT:    1659338  MISS:    2782601  HIT %:    37.3562  MISS %:    62.6438   MPKI: 55.652
L1I PREFETCH  REQUESTED:    4721288  ISSUED:    4709046  USEFUL:    2329177  USELESS:     453459
L1I USEFUL LOAD PREFETCHES:    2329177 PREFETCH ISSUED TO LOWER LEVEL:    2793924  ACCURACY: 83.3658
L1I TIMELY PREFETCHES:    2329177 LATE PREFETCHES: 11319 DROPPED PREFETCHES: 157
L1I PREFETCHES SAME FILL-ORIGIN LEVEL: 2793924 DIFFERENT FILL-ORIGIN LEVEL: 0
L1I AVERAGE MISS LATENCY: 315313 cycles
L1I RQ	ACCESS:   14069276	FORWARD:          0	MERGED:    4334554	TO_CACHE:    9734722
L1I PQ	ACCESS:    4709046	FORWARD:          0	MERGED:     183474	TO_CACHE:    4525572

BTB TOTAL     ACCESS:    5496535  HIT:    5258217  MISS:     238318  HIT %:    95.6642  MISS %:    4.33579   MPKI: 4.76636
BTB BRANCH_DIRECT_JUMP	ACCESS:     462382  HIT:     460596  MISS:       1786
BTB BRANCH_INDIRECT	ACCESS:      45460  HIT:      45289  MISS:        171
BTB BRANCH_CONDITIONAL	ACCESS:    3246751  HIT:    3240930  MISS:       5821
BTB BRANCH_DIRECT_CALL	ACCESS:     666239  HIT:     662428  MISS:       3811
BTB BRANCH_INDIRECT_CALL	ACCESS:     204728  HIT:     179061  MISS:      25667
BTB BRANCH_RETURN	ACCESS:     870975  HIT:     669913  MISS:     201062
BTB BRANCH_OTHER ACCESS:          0  HIT:          0  MISS:          0

L2C TOTAL     ACCESS:    6264866  HIT:    4379555  MISS:    1885311  HIT %:    69.9066  MISS %:    30.0934   MPKI: 37.7062
L2C LOAD      ACCESS:     887577  HIT:     468364  MISS:     419213  HIT %:    52.7688  MISS %:    47.2312   MPKI: 8.38426
L2C DATA LOAD MPKI: 8.25892
L2C INSTRUCTION LOAD MPKI: 0.12534
L2C RFO       ACCESS:     915315  HIT:      29720  MISS:     885595  HIT %:    3.24697  MISS %:     96.753   MPKI: 17.7119
L2C PREFETCH  ACCESS:    3207400  HIT:    2717873  MISS:     489527  HIT %:    84.7376  MISS %:    15.2624   MPKI: 9.79054
L2C DATA PREFETCH MPKI: 6.85954
L2C INSTRUCTION PREFETCH MPKI: 2.931
L2C WRITEBACK ACCESS:    1161858  HIT:    1102204  MISS:      59654  HIT %:    94.8656  MISS %:    5.13436   MPKI: 1.19308
L2C LOAD TRANSLATION ACCESS:      91136  HIT:      60785  MISS:      30351  HIT %:     66.697  MISS %:     33.303   MPKI: 0.60702
L2C TRANSLATION FROM L1D PREFETCHER ACCESS:       1580  HIT:        609  MISS:        971  HIT %:    38.5443  MISS %:    61.4557   MPKI: 0.01942
L2C PREFETCH  REQUESTED:     474267  ISSUED:     474263  USEFUL:     278031  USELESS:     211808
L2C USEFUL LOAD PREFETCHES:     278031 PREFETCH ISSUED TO LOWER LEVEL:     528359  ACCURACY: 52.6216
L2C TIMELY PREFETCHES:     278031 LATE PREFETCHES: 4092 DROPPED PREFETCHES: 0
L2C PREFETCHES SAME FILL-ORIGIN LEVEL: 347069 DIFFERENT FILL-ORIGIN LEVEL: 34740
L2C AVERAGE MISS LATENCY: 183.24 cycles
L2C RQ	ACCESS:    1895616	FORWARD:          0	MERGED:          0	TO_CACHE:    1895608
L2C WQ	ACCESS:    1161858	FORWARD:          8	MERGED:          0	TO_CACHE:    1161858
L2C PQ	ACCESS:    3268187	FORWARD:          0	MERGED:        575	TO_CACHE:    3267612

L2C Instructions Evicting Data 135947
L2C Translations Evicting Data 28139
L2C Data Evicting Data 1483960
L2C Instructions Evicting Instructions 14289
L2C Translations Evicting Instructions 2705
L2C Data Evicting Instructions 130084
L2C Instructions Evicting Translations 2581
L2C Translations Evicting Translations 478
L2C Data Evicting Translations 27474
L2C Dense regions hint from L2: 0
PSCL5 TOTAL     ACCESS:      66138  HIT:      66138  MISS:          0  HIT %:        100  MISS %:          0   MPKI: 0
PSCL5 LOAD TRANSLATION ACCESS:      65099  HIT:      65099  MISS:          0  HIT %:        100  MISS %:          0   MPKI: 0
PSCL5 TRANSLATION FROM L1D PREFETCHER ACCESS:       1039  HIT:       1039  MISS:          0  HIT %:        100  MISS %:          0   MPKI: 0
PSCL5 PREFETCH  REQUESTED:          0  ISSUED:          0  USEFUL:          0  USELESS:          0
PSCL5 USEFUL LOAD PREFETCHES:          0 PREFETCH ISSUED TO LOWER LEVEL:          0  ACCURACY: -nan
PSCL5 TIMELY PREFETCHES:          0 LATE PREFETCHES: 0 DROPPED PREFETCHES: 0
PSCL5 PREFETCHES SAME FILL-ORIGIN LEVEL: 0 DIFFERENT FILL-ORIGIN LEVEL: 0

PSCL4 TOTAL     ACCESS:      65189  HIT:      65076  MISS:        113  HIT %:    99.8267  MISS %:   0.173342   MPKI: 0.00226
PSCL4 LOAD TRANSLATION ACCESS:      64219  HIT:      64106  MISS:        113  HIT %:     99.824  MISS %:    0.17596   MPKI: 0.00226
PSCL4 TRANSLATION FROM L1D PREFETCHER ACCESS:        970  HIT:        970  MISS:          0  HIT %:        100  MISS %:          0   MPKI: 0
PSCL4 PREFETCH  REQUESTED:          0  ISSUED:          0  USEFUL:          0  USELESS:          0
PSCL4 USEFUL LOAD PREFETCHES:          0 PREFETCH ISSUED TO LOWER LEVEL:          0  ACCURACY: -nan
PSCL4 TIMELY PREFETCHES:          0 LATE PREFETCHES: 0 DROPPED PREFETCHES: 0
PSCL4 PREFETCHES SAME FILL-ORIGIN LEVEL: 0 DIFFERENT FILL-ORIGIN LEVEL: 0

PSCL3 TOTAL     ACCESS:      65762  HIT:      65295  MISS:        467  HIT %:    99.2899  MISS %:   0.710137   MPKI: 0.00934
PSCL3 LOAD TRANSLATION ACCESS:      64834  HIT:      64367  MISS:        467  HIT %:    99.2797  MISS %:   0.720301   MPKI: 0.00934
PSCL3 TRANSLATION FROM L1D PREFETCHER ACCESS:        928  HIT:        928  MISS:          0  HIT %:        100  MISS %:          0   MPKI: 0
PSCL3 PREFETCH  REQUESTED:          0  ISSUED:          0  USEFUL:          0  USELESS:          0
PSCL3 USEFUL LOAD PREFETCHES:          0 PREFETCH ISSUED TO LOWER LEVEL:          0  ACCURACY: -nan
PSCL3 TIMELY PREFETCHES:          0 LATE PREFETCHES: 0 DROPPED PREFETCHES: 0
PSCL3 PREFETCHES SAME FILL-ORIGIN LEVEL: 0 DIFFERENT FILL-ORIGIN LEVEL: 0

PSCL2 TOTAL     ACCESS:      66058  HIT:      40115  MISS:      25943  HIT %:    60.7269  MISS %:    39.2731   MPKI: 0.51886
PSCL2 LOAD TRANSLATION ACCESS:      65434  HIT:      39491  MISS:      25943  HIT %:    60.3524  MISS %:    39.6476   MPKI: 0.51886
PSCL2 TRANSLATION FROM L1D PREFETCHER ACCESS:        624  HIT:        624  MISS:          0  HIT %:        100  MISS %:          0   MPKI: 0
PSCL2 PREFETCH  REQUESTED:          0  ISSUED:          0  USEFUL:          0  USELESS:          0
PSCL2 USEFUL LOAD PREFETCHES:          0 PREFETCH ISSUED TO LOWER LEVEL:          0  ACCURACY: -nan
PSCL2 TIMELY PREFETCHES:          0 LATE PREFETCHES: 0 DROPPED PREFETCHES: 0
PSCL2 PREFETCHES SAME FILL-ORIGIN LEVEL: 0 DIFFERENT FILL-ORIGIN LEVEL: 0

LLC TOTAL     ACCESS:    2954952  HIT:     974042  MISS:    1980910  HIT %:     32.963  MISS %:     67.037   MPKI: 39.6182
LLC LOAD      ACCESS:     415124  HIT:     221392  MISS:     193732  HIT %:    53.3315  MISS %:    46.6685   MPKI: 3.87464
LLC RFO       ACCESS:     885592  HIT:     201347  MISS:     684245  HIT %:    22.7359  MISS %:    77.2641   MPKI: 13.6849
LLC PREFETCH  ACCESS:     528143  HIT:     131874  MISS:     396269  HIT %:    24.9694  MISS %:    75.0306   MPKI: 7.92538
LLC WRITEBACK ACCESS:    1094771  HIT:     409248  MISS:     685523  HIT %:    37.3821  MISS %:    62.6179   MPKI: 13.7105
LLC LOAD TRANSLATION ACCESS:      30351  HIT:       9852  MISS:      20499  HIT %:    32.4602  MISS %:    67.5398   MPKI: 0.40998
LLC TRANSLATION FROM L1D PREFETCHER ACCESS:        971  HIT:        329  MISS:        642  HIT %:    33.8826  MISS %:    66.1174   MPKI: 0.01284
LLC PREFETCH  REQUESTED:          0  ISSUED:          0  USEFUL:       3216  USELESS:     392062
LLC USEFUL LOAD PREFETCHES:       3216 PREFETCH ISSUED TO LOWER LEVEL:     396445  ACCURACY: 0.81121
LLC TIMELY PREFETCHES:       3216 LATE PREFETCHES: 176 DROPPED PREFETCHES: 0
LLC PREFETCHES SAME FILL-ORIGIN LEVEL: 29420 DIFFERENT FILL-ORIGIN LEVEL: 0
LLC AVERAGE MISS LATENCY: 148.462 cycles
LLC RQ	ACCESS:    1332038	FORWARD:          0	MERGED:          0	TO_CACHE:    1332038
LLC WQ	ACCESS:    1094771	FORWARD:          0	MERGED:          0	TO_CACHE:    1094771
LLC PQ	ACCESS:     528359	FORWARD:          0	MERGED:          2	TO_CACHE:     528357

LLC Dense regions hint to LLC: 0

RAW hits: 1298949
Loads Generated: 11983945
Loads sent to L1D: 10684996
Stores Generated: 8106873
Stores sent to L1D: 8106889
Major fault: 0 Minor fault: 25901
Allocated PAGES: 25901
I-Shadow cache 408 bytes
Touched + WorthPF tables 6144 bytes 
MMA filter 174 bytes 
FNL filter 272 bytes 
TOTAL PREFETCHER STORAGE SIZE: 25174 bytes
CPU 0 L1I next line prefetcher final stats
------------------
Depth Distribution
------------------
depth 0: 91632
depth 1: 104882
depth 2: 29229
depth 3: 4158
depth 4: 3638
depth 5: 6125
depth 6: 13263
depth 7: 33335
depth 8: 76431
depth 9: 129236
depth 10: 12742
depth 11: 13259
depth 12: 1
depth 13: 0
depth 14: 0
depth 15: 0
depth 16: 0
depth 17: 0
depth 18: 0
depth 19: 0
depth 20: 0
depth 21: 0
depth 22: 0
depth 23: 0
depth 24: 0
depth 25: 0
depth 26: 0
depth 27: 0
depth 28: 0
depth 29: 0
Total: 517931
------------------
ST read accesses: 360918
ST write accesses: 100454
PT read accesses: 15212740
PT write accesses: 466882
FILTER read accesses: 5074180
FILTER write accesses: 4717333
GHR read accesses: 1742377
GHR write accesses: 170316
PERC read accesses: 109703223
PERC write accesses: 4902853
GHR counter read accesses: 922744
GHR counter write accesses: 1275112
GHR ip read accesses: 3255558
GHR ip write accesses: 1845488
ST tag read accesses: 14544411
ST tag write accesses: 2268768

DRAM Statistics
 CHANNEL 0
 RQ ROW_BUFFER_HIT:     442108  ROW_BUFFER_MISS:     853203
 DBUS_CONGESTED:       1013
 WQ ROW_BUFFER_HIT:     191105  ROW_BUFFER_MISS:     604517  FULL:      18535

 AVG_CONGESTED_CYCLE: 4
 All warmup complete: 2
Channel 0 Bank busy for read cycles: 0
Channel 0 Bank busy for write cycles: 0
Channel 0
Rank 0
0banks busy for read cycles: 22896012
0banks busy for write cycles: 52483
1banks busy for read cycles: 22724659
1banks busy for write cycles: 8154188
2banks busy for read cycles: 13790328
2banks busy for write cycles: 5003530
3banks busy for read cycles: 7343331
3banks busy for write cycles: 3446939
4banks busy for read cycles: 4141136
4banks busy for write cycles: 2543729
5banks busy for read cycles: 1516236
5banks busy for write cycles: 1890011
6banks busy for read cycles: 1061994
6banks busy for write cycles: 1581069
7banks busy for read cycles: 1336544
7banks busy for write cycles: 2093348
8banks busy for read cycles: 5030701
8banks busy for write cycles: 10051703

CPU 0 Branch Prediction Accuracy: 99.2186% MPKI: 1.3219 Average ROB Occupancy at Mispredict: 133.573
Branch types
NOT_BRANCH: 41540709 83.0814%
BRANCH_DIRECT_JUMP: 462382 0.924764%
BRANCH_INDIRECT: 45460 0.09092%
BRANCH_CONDITIONAL: 6209260 12.4185%
BRANCH_DIRECT_CALL: 666239 1.33248%
BRANCH_INDIRECT_CALL: 204728 0.409456%
BRANCH_RETURN: 870975 1.74195%
BRANCH_OTHER: 0 0%

DRAM PAGES: 1048576
Allocated PAGES: 25901
