Initialize SIGNATURE TABLE
ST_SET: 1
ST_WAY: 256
ST_TAG_BIT: 16
ST_TAG_MASK: ffff

Initialize PATTERN TABLE
PT_SET: 512
PT_WAY: 4
SIG_DELTA_BIT: 7
C_SIG_BIT: 4
C_DELTA_BIT: 4

Initialize PREFETCH FILTER
FILTER_SET: 1024

Initialize PERCEPTRON
PERC_ENTRIES: 4096
PERC_FEATURES: 9

*** ChampSim Multicore Out-of-Order Simulator ***

Warmup Instructions: 50000000
Simulation Instructions: 50000000
Number of CPUs: 1
LLC sets: 2048
LLC ways: 16
Off-chip DRAM Size: 4096 MB Channels: 1 Width: 64-bit Data Rate: 6400 MT/s
CPU 0 runs ../IPC-traces//server_019.champsimtrace.xz
.xz
NUM_OF_IPS_IN_CRITICAL_IP_TRAINING: 64
NUM_OF_CRITICAL_IP_TRAINING_TABLE_WAYS: 2
NUM_OF_CRITICAL_IP_TRAINING_TABLE_SETS: 32
WOBBLY_CRITICAL_IP_CACHE_SETS: 32
WOBBLY_CRITICAL_IP_CACHE_WAYS: 4
BTB has LRU replacement policy
ITLB has LRU replacement policy
DTLB has LRU replacement policy
STLB has LRU replacement policy
CPU 0 L1I next line prefetcher
L1I has LRU replacement policy
L1D has LRU replacement policy
Initialize SRRIP state for L2C
Initialize DRRIP state for LLC
Heartbeat CPU 0 instructions: 10000002 cycles: 3191971 heartbeat IPC: 3.13286 cumulative IPC: 3.13286 (Simulation time: 0 hr 3 min 46 sec) 
Heartbeat CPU 0 instructions: 20000001 cycles: 6381917 heartbeat IPC: 3.13485 cumulative IPC: 3.13385 (Simulation time: 0 hr 6 min 54 sec) 
Heartbeat CPU 0 instructions: 30000001 cycles: 9572215 heartbeat IPC: 3.1345 cumulative IPC: 3.13407 (Simulation time: 0 hr 9 min 42 sec) 
Heartbeat CPU 0 instructions: 40000002 cycles: 12774559 heartbeat IPC: 3.12271 cumulative IPC: 3.13122 (Simulation time: 0 hr 12 min 10 sec) 
Heartbeat CPU 0 instructions: 50000001 cycles: 15962280 heartbeat IPC: 3.13704 cumulative IPC: 3.13238 (Simulation time: 0 hr 14 min 26 sec) 

Warmup complete CPU 0 instructions: 50000001 cycles: 15962280 (Simulation time: 0 hr 14 min 26 sec) 

% increase in all ip prefetch 633.46
% increase in all ip prefetch -13.7326
Heartbeat CPU 0 instructions: 60000003 cycles: 38832956 heartbeat IPC: 0.437241 cumulative IPC: 0.437241 (Simulation time: 0 hr 18 min 12 sec) 
Heartbeat CPU 0 instructions: 70000002 cycles: 65554592 heartbeat IPC: 0.374229 cumulative IPC: 0.403288 (Simulation time: 0 hr 21 min 43 sec) 
Heartbeat CPU 0 instructions: 80000001 cycles: 91178565 heartbeat IPC: 0.39026 cumulative IPC: 0.39885 (Simulation time: 0 hr 25 min 6 sec) 
Heartbeat CPU 0 instructions: 90000001 cycles: 113121925 heartbeat IPC: 0.455719 cumulative IPC: 0.411694 (Simulation time: 0 hr 29 min 46 sec) 
Heartbeat CPU 0 instructions: 100000002 cycles: 134439800 heartbeat IPC: 0.46909 cumulative IPC: 0.422021 (Simulation time: 0 hr 34 min 24 sec) 
Finished CPU 0 instructions: 50000001 cycles: 118477520 cumulative IPC: 0.422021 (Simulation time: 0 hr 34 min 24 sec) 

ChampSim completed all CPUs

Region of Interest Statistics

CPU 0 cumulative IPC: 0.422021 instructions: 50000001 cycles: 118477520

CPU 0 Average Load ROB stall cycles: 3.52911e+07
CPU 0 Fraction of times ROB stalled by Loads: 45.7936
CPU 0 Percentage of Load stall cycles in Total stall cycles: 2.46396e+08
Issued all: 53326103
Issued LT all: 47930495
rob_not_full_when_issued_lt_all: 17147841
Issued LT one: 42293150
rob_not_full_when_issued_lt_one: 13254725
 Total stall cycles: 100686272
 Total load stall cycles: 248087191590607
CPU 0 NUM of IPS identified critical: 0
CPU 0 Num of Load IPs stalling ROB: 5531
Threshold modification factor: -1
Max PIST entries: 64
Min PIST entries: 0
Avg PIST entries: 30.26
Trouble in retire width: 0.823902
MaC = Marked as critical.
lt_50_percent_before_Mac: 0
gt_90_percent_before_Mac: 0
gt_75_percent_before_Mac: 0
gt_50_percent_before_Mac: 0
stall_proportion_bin_same_before_after: 0
stall_proportion_bin_lower_before_after: 0
stall_proportion_bin_upper_before_after: 0
average_stall_proportion_before: -nan
average_stall_proportion_after: -nan
Critical IP stalls, total frequency: 0
Non-critical IP stalls, total frequency: 3219167
Total Freq all stalling IPs: 3219167
stat_90_percent_critical_ip_stalls_freq: 2897831
stat_90_percent_non_critical_ip_stalls_freq: 321336
Critical_IP_ROB_Stalls_Bucket_0: 0
Non-critical_IP_ROB_Stalls_Bucket_0: 470384
Critical_IP_ROB_Stalls_Bucket_1: 0
Non-critical_IP_ROB_Stalls_Bucket_1: 584064
Critical_IP_ROB_Stalls_Bucket_2: 0
Non-critical_IP_ROB_Stalls_Bucket_2: 463593
Critical_IP_ROB_Stalls_Bucket_3: 0
Non-critical_IP_ROB_Stalls_Bucket_3: 327254
Critical_IP_ROB_Stalls_Bucket_4: 0
Non-critical_IP_ROB_Stalls_Bucket_4: 181735
Critical_IP_ROB_Stalls_Bucket_5: 0
Non-critical_IP_ROB_Stalls_Bucket_5: 166516
Critical_IP_ROB_Stalls_Bucket_6: 0
Non-critical_IP_ROB_Stalls_Bucket_6: 1025621
0 => IPs accounting for >50 percent of stalls, 1 => 55, 2 => 60, 3 => 65 and so on till 90.
percent50: 50.1302 num IPs:  8
percent55: 55.2316 num IPs: 14
percent60: 60.045 num IPs: 32
percent65: 65.084 num IPs: 67
percent70: 70.0451 num IPs: 124
percent75: 75.0214 num IPs: 201
percent80: 80.0225 num IPs: 280
percent85: 85.0374 num IPs: 366
percent90: 90.0179 num IPs: 479
Critical_ROB_Stalls_Percent_0_Bucket_0: 37527
Non-critical_ROB_Stalls_Percent_0_Bucket_0: 432857
Critical_ROB_Stalls_Percent_0_Bucket_1: 96344
Non-critical_ROB_Stalls_Percent_0_Bucket_1: 487720
Critical_ROB_Stalls_Percent_0_Bucket_2: 184028
Non-critical_ROB_Stalls_Percent_0_Bucket_2: 279565
Critical_ROB_Stalls_Percent_0_Bucket_3: 183883
Non-critical_ROB_Stalls_Percent_0_Bucket_3: 143371
Critical_ROB_Stalls_Percent_0_Bucket_4: 122016
Non-critical_ROB_Stalls_Percent_0_Bucket_4: 59719
Critical_ROB_Stalls_Percent_0_Bucket_5: 112383
Non-critical_ROB_Stalls_Percent_0_Bucket_5: 54133
Critical_ROB_Stalls_Percent_0_Bucket_6: 877594
Non-critical_ROB_Stalls_Percent_0_Bucket_6: 148027
Critical_ROB_Stalls_Percent_1_Bucket_0: 52435
Non-critical_ROB_Stalls_Percent_1_Bucket_0: 417949
Critical_ROB_Stalls_Percent_1_Bucket_1: 149983
Non-critical_ROB_Stalls_Percent_1_Bucket_1: 434081
Critical_ROB_Stalls_Percent_1_Bucket_2: 200270
Non-critical_ROB_Stalls_Percent_1_Bucket_2: 263323
Critical_ROB_Stalls_Percent_1_Bucket_3: 216598
Non-critical_ROB_Stalls_Percent_1_Bucket_3: 110656
Critical_ROB_Stalls_Percent_1_Bucket_4: 129486
Non-critical_ROB_Stalls_Percent_1_Bucket_4: 52249
Critical_ROB_Stalls_Percent_1_Bucket_5: 123948
Non-critical_ROB_Stalls_Percent_1_Bucket_5: 42568
Critical_ROB_Stalls_Percent_1_Bucket_6: 905278
Non-critical_ROB_Stalls_Percent_1_Bucket_6: 120343
Critical_ROB_Stalls_Percent_2_Bucket_0: 115957
Non-critical_ROB_Stalls_Percent_2_Bucket_0: 354427
Critical_ROB_Stalls_Percent_2_Bucket_1: 195968
Non-critical_ROB_Stalls_Percent_2_Bucket_1: 388096
Critical_ROB_Stalls_Percent_2_Bucket_2: 218974
Non-critical_ROB_Stalls_Percent_2_Bucket_2: 244619
Critical_ROB_Stalls_Percent_2_Bucket_3: 227486
Non-critical_ROB_Stalls_Percent_2_Bucket_3: 99768
Critical_ROB_Stalls_Percent_2_Bucket_4: 134829
Non-critical_ROB_Stalls_Percent_2_Bucket_4: 46906
Critical_ROB_Stalls_Percent_2_Bucket_5: 128242
Non-critical_ROB_Stalls_Percent_2_Bucket_5: 38274
Critical_ROB_Stalls_Percent_2_Bucket_6: 911494
Non-critical_ROB_Stalls_Percent_2_Bucket_6: 114127
Critical_ROB_Stalls_Percent_3_Bucket_0: 177768
Non-critical_ROB_Stalls_Percent_3_Bucket_0: 292616
Critical_ROB_Stalls_Percent_3_Bucket_1: 228406
Non-critical_ROB_Stalls_Percent_3_Bucket_1: 355658
Critical_ROB_Stalls_Percent_3_Bucket_2: 246693
Non-critical_ROB_Stalls_Percent_3_Bucket_2: 216900
Critical_ROB_Stalls_Percent_3_Bucket_3: 235050
Non-critical_ROB_Stalls_Percent_3_Bucket_3: 92204
Critical_ROB_Stalls_Percent_3_Bucket_4: 139112
Non-critical_ROB_Stalls_Percent_3_Bucket_4: 42623
Critical_ROB_Stalls_Percent_3_Bucket_5: 135032
Non-critical_ROB_Stalls_Percent_3_Bucket_5: 31484
Critical_ROB_Stalls_Percent_3_Bucket_6: 933101
Non-critical_ROB_Stalls_Percent_3_Bucket_6: 92520
Critical_ROB_Stalls_Percent_4_Bucket_0: 212982
Non-critical_ROB_Stalls_Percent_4_Bucket_0: 257402
Critical_ROB_Stalls_Percent_4_Bucket_1: 275149
Non-critical_ROB_Stalls_Percent_4_Bucket_1: 308915
Critical_ROB_Stalls_Percent_4_Bucket_2: 279120
Non-critical_ROB_Stalls_Percent_4_Bucket_2: 184473
Critical_ROB_Stalls_Percent_4_Bucket_3: 245574
Non-critical_ROB_Stalls_Percent_4_Bucket_3: 81680
Critical_ROB_Stalls_Percent_4_Bucket_4: 145847
Non-critical_ROB_Stalls_Percent_4_Bucket_4: 35888
Critical_ROB_Stalls_Percent_4_Bucket_5: 140221
Non-critical_ROB_Stalls_Percent_4_Bucket_5: 26295
Critical_ROB_Stalls_Percent_4_Bucket_6: 955976
Non-critical_ROB_Stalls_Percent_4_Bucket_6: 69645
Critical_ROB_Stalls_Percent_5_Bucket_0: 235408
Non-critical_ROB_Stalls_Percent_5_Bucket_0: 234976
Critical_ROB_Stalls_Percent_5_Bucket_1: 335594
Non-critical_ROB_Stalls_Percent_5_Bucket_1: 248470
Critical_ROB_Stalls_Percent_5_Bucket_2: 310716
Non-critical_ROB_Stalls_Percent_5_Bucket_2: 152877
Critical_ROB_Stalls_Percent_5_Bucket_3: 268115
Non-critical_ROB_Stalls_Percent_5_Bucket_3: 59139
Critical_ROB_Stalls_Percent_5_Bucket_4: 159613
Non-critical_ROB_Stalls_Percent_5_Bucket_4: 22122
Critical_ROB_Stalls_Percent_5_Bucket_5: 147188
Non-critical_ROB_Stalls_Percent_5_Bucket_5: 19328
Critical_ROB_Stalls_Percent_5_Bucket_6: 958435
Non-critical_ROB_Stalls_Percent_5_Bucket_6: 67186
Critical_ROB_Stalls_Percent_6_Bucket_0: 271348
Non-critical_ROB_Stalls_Percent_6_Bucket_0: 199036
Critical_ROB_Stalls_Percent_6_Bucket_1: 398359
Non-critical_ROB_Stalls_Percent_6_Bucket_1: 185705
Critical_ROB_Stalls_Percent_6_Bucket_2: 347981
Non-critical_ROB_Stalls_Percent_6_Bucket_2: 115612
Critical_ROB_Stalls_Percent_6_Bucket_3: 276592
Non-critical_ROB_Stalls_Percent_6_Bucket_3: 50662
Critical_ROB_Stalls_Percent_6_Bucket_4: 163758
Non-critical_ROB_Stalls_Percent_6_Bucket_4: 17977
Critical_ROB_Stalls_Percent_6_Bucket_5: 149509
Non-critical_ROB_Stalls_Percent_6_Bucket_5: 17007
Critical_ROB_Stalls_Percent_6_Bucket_6: 968514
Non-critical_ROB_Stalls_Percent_6_Bucket_6: 57107
Critical_ROB_Stalls_Percent_7_Bucket_0: 312831
Non-critical_ROB_Stalls_Percent_7_Bucket_0: 157553
Critical_ROB_Stalls_Percent_7_Bucket_1: 444669
Non-critical_ROB_Stalls_Percent_7_Bucket_1: 139395
Critical_ROB_Stalls_Percent_7_Bucket_2: 389079
Non-critical_ROB_Stalls_Percent_7_Bucket_2: 74514
Critical_ROB_Stalls_Percent_7_Bucket_3: 293823
Non-critical_ROB_Stalls_Percent_7_Bucket_3: 33431
Critical_ROB_Stalls_Percent_7_Bucket_4: 168121
Non-critical_ROB_Stalls_Percent_7_Bucket_4: 13614
Critical_ROB_Stalls_Percent_7_Bucket_5: 152261
Non-critical_ROB_Stalls_Percent_7_Bucket_5: 14255
Critical_ROB_Stalls_Percent_7_Bucket_6: 976716
Non-critical_ROB_Stalls_Percent_7_Bucket_6: 48905
Critical_ROB_Stalls_Percent_8_Bucket_0: 365526
Non-critical_ROB_Stalls_Percent_8_Bucket_0: 104858
Critical_ROB_Stalls_Percent_8_Bucket_1: 496196
Non-critical_ROB_Stalls_Percent_8_Bucket_1: 87868
Critical_ROB_Stalls_Percent_8_Bucket_2: 413279
Non-critical_ROB_Stalls_Percent_8_Bucket_2: 50314
Critical_ROB_Stalls_Percent_8_Bucket_3: 301867
Non-critical_ROB_Stalls_Percent_8_Bucket_3: 25387
Critical_ROB_Stalls_Percent_8_Bucket_4: 171861
Non-critical_ROB_Stalls_Percent_8_Bucket_4: 9874
Critical_ROB_Stalls_Percent_8_Bucket_5: 155802
Non-critical_ROB_Stalls_Percent_8_Bucket_5: 10714
Critical_ROB_Stalls_Percent_8_Bucket_6: 993300
Non-critical_ROB_Stalls_Percent_8_Bucket_6: 32321
Average ROB occupancy Load Stall Begin: 182.091
Average ROB occupancy Load Stall End: 191.312
Min ROB occupancy Load Stall Begin: 1
Max ROB occupancy Load Stall Begin: 352
Min ROB occupancy Load Stall End: 1
Max ROB occupancy Load Stall End: 352
Average ROB occupancy Critical Load Stall Begin: -nan
Average ROB occupancy Critical Load Stall End: -nan
Min ROB occupancy Critical Load Stall Begin: 400
Max ROB occupancy Critical Load Stall Begin: 0
Min ROB occupancy Critical Load Stall End: 400
Max ROB occupancy Critical Load Stall End: 0
 ROB Load Stall Begin Bucket Count 0: 664489
 ROB Load Stall End Bucket Count 0: 470384
 ROB Critical Load Stall Begin Bucket Count 0: 0
 ROB Critical Load Stall End Bucket Count 0: 0
 ROB Load Stall Begin Bucket Count 1: 536884
 ROB Load Stall End Bucket Count 1: 584064
 ROB Critical Load Stall Begin Bucket Count 1: 0
 ROB Critical Load Stall End Bucket Count 1: 0
 ROB Load Stall Begin Bucket Count 2: 418978
 ROB Load Stall End Bucket Count 2: 463593
 ROB Critical Load Stall Begin Bucket Count 2: 0
 ROB Critical Load Stall End Bucket Count 2: 0
 ROB Load Stall Begin Bucket Count 3: 274055
 ROB Load Stall End Bucket Count 3: 327254
 ROB Critical Load Stall Begin Bucket Count 3: 0
 ROB Critical Load Stall End Bucket Count 3: 0
 ROB Load Stall Begin Bucket Count 4: 169042
 ROB Load Stall End Bucket Count 4: 181735
 ROB Critical Load Stall Begin Bucket Count 4: 0
 ROB Critical Load Stall End Bucket Count 4: 0
 ROB Load Stall Begin Bucket Count 5: 163990
 ROB Load Stall End Bucket Count 5: 166516
 ROB Critical Load Stall Begin Bucket Count 5: 0
 ROB Critical Load Stall End Bucket Count 5: 0
 ROB Load Stall Begin Bucket Count 6: 991729
 ROB Load Stall End Bucket Count 6: 1025621
 ROB Critical Load Stall Begin Bucket Count 6: 0
 ROB Critical Load Stall End Bucket Count 6: 0
PIST Tag Read Accesses: 2440088
PIST Read Accesses: 1220044
PIST Tag Write Accesses: 2440088
PIST Write Accesses: 1220044
Criticality detector called times: 1546471
Max global_stall_cycles_count: 3835045
Threshold Modified: 1 times, factor: -1
Sturdy critical IP cache stats: 
 Unused entries: 0
CIC Tag Read Accesses: 0
CIC Read Accesses: 0
CIC Tag Write Accesses: 0
CIC Write Accesses: 0
Wobbly critical IP cache stats: 
 Unused entries: 109
CIC Tag Read Accesses: 88936234
CIC Read Accesses: 0
CIC Tag Write Accesses: 85626
CIC Write Accesses: 0
ITLB TOTAL     ACCESS:   10105293  HIT:    9689823  MISS:     415470  HIT %:    95.8886  MISS %:    4.11141   MPKI: 8.3094
ITLB LOAD TRANSLATION ACCESS:    8368537  HIT:    8359395  MISS:       9142  HIT %:    99.8908  MISS %:   0.109243   MPKI: 0.18284
ITLB TRANSLATION FROM L1D PREFETCHER ACCESS:    1736756  HIT:    1330428  MISS:     406328  HIT %:    76.6042  MISS %:    23.3958   MPKI: 8.12656
ITLB PREFETCH  REQUESTED:          0  ISSUED:          0  USEFUL:     364404  USELESS:      41919
ITLB USEFUL LOAD PREFETCHES:     364404 PREFETCH ISSUED TO LOWER LEVEL:          0  ACCURACY: inf
ITLB TIMELY PREFETCHES:     364404 LATE PREFETCHES: 282 DROPPED PREFETCHES: 90
ITLB PREFETCHES SAME FILL-ORIGIN LEVEL: 0 DIFFERENT FILL-ORIGIN LEVEL: 0
ITLB AVERAGE MISS LATENCY: 48818.5 cycles
ITLB RQ	ACCESS:   14241175	FORWARD:          0	MERGED:    4096782	TO_CACHE:   10144393

DTLB TOTAL     ACCESS:   10557685  HIT:   10115218  MISS:     442467  HIT %:    95.8091  MISS %:    4.19095   MPKI: 8.84934
DTLB LOAD TRANSLATION ACCESS:   10557685  HIT:   10115218  MISS:     442467  HIT %:    95.8091  MISS %:    4.19095   MPKI: 8.84934
DTLB PREFETCH  REQUESTED:          0  ISSUED:          0  USEFUL:          0  USELESS:          0
DTLB USEFUL LOAD PREFETCHES:          0 PREFETCH ISSUED TO LOWER LEVEL:          0  ACCURACY: -nan
DTLB TIMELY PREFETCHES:          0 LATE PREFETCHES: 0 DROPPED PREFETCHES: 0
DTLB PREFETCHES SAME FILL-ORIGIN LEVEL: 0 DIFFERENT FILL-ORIGIN LEVEL: 0
DTLB AVERAGE MISS LATENCY: 27.2913 cycles
DTLB RQ	ACCESS:   15312178	FORWARD:          0	MERGED:    4674515	TO_CACHE:   10637663

STLB TOTAL     ACCESS:     857937  HIT:     791854  MISS:      66083  HIT %:    92.2975  MISS %:    7.70255   MPKI: 1.32166
STLB LOAD TRANSLATION ACCESS:     451327  HIT:     386221  MISS:      65106  HIT %:    85.5745  MISS %:    14.4255   MPKI: 1.30212
STLB TRANSLATION FROM L1D PREFETCHER ACCESS:     406610  HIT:     405633  MISS:        977  HIT %:    99.7597  MISS %:   0.240279   MPKI: 0.01954
STLB PREFETCH  REQUESTED:          0  ISSUED:          0  USEFUL:        771  USELESS:        224
STLB USEFUL LOAD PREFETCHES:        771 PREFETCH ISSUED TO LOWER LEVEL:          0  ACCURACY: inf
STLB TIMELY PREFETCHES:        771 LATE PREFETCHES: 0 DROPPED PREFETCHES: 90
STLB PREFETCHES SAME FILL-ORIGIN LEVEL: 0 DIFFERENT FILL-ORIGIN LEVEL: 0
STLB AVERAGE MISS LATENCY: 127.114 cycles
STLB RQ	ACCESS:     858028	FORWARD:          0	MERGED:          0	TO_CACHE:     858028

STLB Hit, L1D data hit: 0
STLB Hit, L2C data hit: 0
STLB Hit, LLC data hit: 0
STLB Hit, LLC data miss: 0
STLB STLB hints to L2: 0
L1D TOTAL     ACCESS:   13301681  HIT:   11512907  MISS:    1788774  HIT %:    86.5523  MISS %:    13.4477   MPKI: 35.7755
L1D LOAD      ACCESS:    7268828  HIT:    6395339  MISS:     873489  HIT %:    87.9831  MISS %:    12.0169   MPKI: 17.4698
L1D RFO       ACCESS:    6032853  HIT:    5117568  MISS:     915285  HIT %:    84.8283  MISS %:    15.1717   MPKI: 18.3057
L1D PREFETCH  REQUESTED:          0  ISSUED:          0  USEFUL:          0  USELESS:          0
L1D USEFUL LOAD PREFETCHES:          0 PREFETCH ISSUED TO LOWER LEVEL:          0  ACCURACY: -nan
L1D TIMELY PREFETCHES:          0 LATE PREFETCHES: 0 DROPPED PREFETCHES: 0
L1D PREFETCHES SAME FILL-ORIGIN LEVEL: 0 DIFFERENT FILL-ORIGIN LEVEL: 0
L1D AVERAGE MISS LATENCY: 158.105 cycles
L1D RQ	ACCESS:   10686281	FORWARD:          0	MERGED:    3273190	TO_CACHE:    7306695
L1D WQ	ACCESS:    8106889	FORWARD:     106396	MERGED:     101406	TO_CACHE:    8005483

L1D UNIQUE REGIONS ACCESSED: 0
L1D REGIONS CONFLICTS: 0
L1D Cross Page Prefetch Requests: 0
L1D Same Page Prefetch Requests: 0
L1D ROI Sum of L1D PQ occupancy: 0
L1D PREFETCHES PUSHED FROM L2C: 0
L1I TOTAL     ACCESS:   14154342  HIT:   11354562  MISS:    2799780  HIT %:    80.2196  MISS %:    19.7804   MPKI: 55.9956
L1I LOAD      ACCESS:    9732440  HIT:    9706604  MISS:      25836  HIT %:    99.7345  MISS %:   0.265463   MPKI: 0.51672
L1I PREFETCH  ACCESS:    4421902  HIT:    1647958  MISS:    2773944  HIT %:    37.2681  MISS %:    62.7319   MPKI: 55.4789
L1I PREFETCH  REQUESTED:    4674151  ISSUED:    4664971  USEFUL:    2322651  USELESS:     451320
L1I USEFUL LOAD PREFETCHES:    2322651 PREFETCH ISSUED TO LOWER LEVEL:    2786080  ACCURACY: 83.3663
L1I TIMELY PREFETCHES:    2322651 LATE PREFETCHES: 11991 DROPPED PREFETCHES: 157
L1I PREFETCHES SAME FILL-ORIGIN LEVEL: 2786080 DIFFERENT FILL-ORIGIN LEVEL: 0
L1I AVERAGE MISS LATENCY: 359435 cycles
L1I RQ	ACCESS:   14077427	FORWARD:          0	MERGED:    4338456	TO_CACHE:    9738971
L1I PQ	ACCESS:    4664971	FORWARD:          0	MERGED:     162767	TO_CACHE:    4502204

BTB TOTAL     ACCESS:    5496535  HIT:    5258217  MISS:     238318  HIT %:    95.6642  MISS %:    4.33579   MPKI: 4.76636
BTB BRANCH_DIRECT_JUMP	ACCESS:     462382  HIT:     460596  MISS:       1786
BTB BRANCH_INDIRECT	ACCESS:      45460  HIT:      45289  MISS:        171
BTB BRANCH_CONDITIONAL	ACCESS:    3246751  HIT:    3240930  MISS:       5821
BTB BRANCH_DIRECT_CALL	ACCESS:     666239  HIT:     662428  MISS:       3811
BTB BRANCH_INDIRECT_CALL	ACCESS:     204728  HIT:     179061  MISS:      25667
BTB BRANCH_RETURN	ACCESS:     870975  HIT:     669913  MISS:     201062
BTB BRANCH_OTHER ACCESS:          0  HIT:          0  MISS:          0

L2C TOTAL     ACCESS:    6178156  HIT:    4315690  MISS:    1862466  HIT %:     69.854  MISS %:     30.146   MPKI: 37.2493
L2C LOAD      ACCESS:     887327  HIT:     416785  MISS:     470542  HIT %:    46.9708  MISS %:    53.0292   MPKI: 9.41084
L2C DATA LOAD MPKI: 9.28486
L2C INSTRUCTION LOAD MPKI: 0.12598
L2C RFO       ACCESS:     915283  HIT:      31727  MISS:     883556  HIT %:    3.46636  MISS %:    96.5336   MPKI: 17.6711
L2C PREFETCH  ACCESS:    3120925  HIT:    2699591  MISS:     421334  HIT %:    86.4997  MISS %:    13.5003   MPKI: 8.42668
L2C DATA PREFETCH MPKI: 5.54838
L2C INSTRUCTION PREFETCH MPKI: 2.8783
L2C WRITEBACK ACCESS:    1161845  HIT:    1106135  MISS:      55710  HIT %:     95.205  MISS %:    4.79496   MPKI: 1.1142
L2C LOAD TRANSLATION ACCESS:      91165  HIT:      60829  MISS:      30336  HIT %:    66.7241  MISS %:    33.2759   MPKI: 0.60672
L2C TRANSLATION FROM L1D PREFETCHER ACCESS:       1611  HIT:        623  MISS:        988  HIT %:    38.6716  MISS %:    61.3284   MPKI: 0.01976
L2C PREFETCH  REQUESTED:     437951  ISSUED:     437879  USEFUL:     225501  USELESS:     196307
L2C USEFUL LOAD PREFETCHES:     225501 PREFETCH ISSUED TO LOWER LEVEL:     508145  ACCURACY: 44.3773
L2C TIMELY PREFETCHES:     225501 LATE PREFETCHES: 60425 DROPPED PREFETCHES: 0
L2C PREFETCHES SAME FILL-ORIGIN LEVEL: 337844 DIFFERENT FILL-ORIGIN LEVEL: 26386
L2C AVERAGE MISS LATENCY: 175.382 cycles
L2C RQ	ACCESS:    1895395	FORWARD:          0	MERGED:          0	TO_CACHE:    1895386
L2C WQ	ACCESS:    1161845	FORWARD:          9	MERGED:          0	TO_CACHE:    1161845
L2C PQ	ACCESS:    3223818	FORWARD:          0	MERGED:        270	TO_CACHE:    3223548

L2C Instructions Evicting Data 134192
L2C Translations Evicting Data 28197
L2C Data Evicting Data 1469050
L2C Instructions Evicting Instructions 13445
L2C Translations Evicting Instructions 2630
L2C Data Evicting Instructions 128675
L2C Instructions Evicting Translations 2577
L2C Translations Evicting Translations 497
L2C Data Evicting Translations 27493
L2C Dense regions hint from L2: 0
PSCL5 TOTAL     ACCESS:      66173  HIT:      66173  MISS:          0  HIT %:        100  MISS %:          0   MPKI: 0
PSCL5 LOAD TRANSLATION ACCESS:      65106  HIT:      65106  MISS:          0  HIT %:        100  MISS %:          0   MPKI: 0
PSCL5 TRANSLATION FROM L1D PREFETCHER ACCESS:       1067  HIT:       1067  MISS:          0  HIT %:        100  MISS %:          0   MPKI: 0
PSCL5 PREFETCH  REQUESTED:          0  ISSUED:          0  USEFUL:          0  USELESS:          0
PSCL5 USEFUL LOAD PREFETCHES:          0 PREFETCH ISSUED TO LOWER LEVEL:          0  ACCURACY: -nan
PSCL5 TIMELY PREFETCHES:          0 LATE PREFETCHES: 0 DROPPED PREFETCHES: 0
PSCL5 PREFETCHES SAME FILL-ORIGIN LEVEL: 0 DIFFERENT FILL-ORIGIN LEVEL: 0

PSCL4 TOTAL     ACCESS:      65190  HIT:      65077  MISS:        113  HIT %:    99.8267  MISS %:   0.173339   MPKI: 0.00226
PSCL4 LOAD TRANSLATION ACCESS:      64201  HIT:      64088  MISS:        113  HIT %:     99.824  MISS %:    0.17601   MPKI: 0.00226
PSCL4 TRANSLATION FROM L1D PREFETCHER ACCESS:        989  HIT:        989  MISS:          0  HIT %:        100  MISS %:          0   MPKI: 0
PSCL4 PREFETCH  REQUESTED:          0  ISSUED:          0  USEFUL:          0  USELESS:          0
PSCL4 USEFUL LOAD PREFETCHES:          0 PREFETCH ISSUED TO LOWER LEVEL:          0  ACCURACY: -nan
PSCL4 TIMELY PREFETCHES:          0 LATE PREFETCHES: 0 DROPPED PREFETCHES: 0
PSCL4 PREFETCHES SAME FILL-ORIGIN LEVEL: 0 DIFFERENT FILL-ORIGIN LEVEL: 0

PSCL3 TOTAL     ACCESS:      65807  HIT:      65333  MISS:        474  HIT %:    99.2797  MISS %:   0.720288   MPKI: 0.00948
PSCL3 LOAD TRANSLATION ACCESS:      64859  HIT:      64385  MISS:        474  HIT %:    99.2692  MISS %:   0.730816   MPKI: 0.00948
PSCL3 TRANSLATION FROM L1D PREFETCHER ACCESS:        948  HIT:        948  MISS:          0  HIT %:        100  MISS %:          0   MPKI: 0
PSCL3 PREFETCH  REQUESTED:          0  ISSUED:          0  USEFUL:          0  USELESS:          0
PSCL3 USEFUL LOAD PREFETCHES:          0 PREFETCH ISSUED TO LOWER LEVEL:          0  ACCURACY: -nan
PSCL3 TIMELY PREFETCHES:          0 LATE PREFETCHES: 0 DROPPED PREFETCHES: 0
PSCL3 PREFETCHES SAME FILL-ORIGIN LEVEL: 0 DIFFERENT FILL-ORIGIN LEVEL: 0

PSCL2 TOTAL     ACCESS:      66113  HIT:      40132  MISS:      25981  HIT %:    60.7021  MISS %:    39.2979   MPKI: 0.51962
PSCL2 LOAD TRANSLATION ACCESS:      65459  HIT:      39478  MISS:      25981  HIT %:    60.3095  MISS %:    39.6905   MPKI: 0.51962
PSCL2 TRANSLATION FROM L1D PREFETCHER ACCESS:        654  HIT:        654  MISS:          0  HIT %:        100  MISS %:          0   MPKI: 0
PSCL2 PREFETCH  REQUESTED:          0  ISSUED:          0  USEFUL:          0  USELESS:          0
PSCL2 USEFUL LOAD PREFETCHES:          0 PREFETCH ISSUED TO LOWER LEVEL:          0  ACCURACY: -nan
PSCL2 TIMELY PREFETCHES:          0 LATE PREFETCHES: 0 DROPPED PREFETCHES: 0
PSCL2 PREFETCHES SAME FILL-ORIGIN LEVEL: 0 DIFFERENT FILL-ORIGIN LEVEL: 0

LLC TOTAL     ACCESS:    2924267  HIT:     940102  MISS:    1984165  HIT %:    32.1483  MISS %:    67.8517   MPKI: 39.6833
LLC LOAD      ACCESS:     410144  HIT:     212549  MISS:     197595  HIT %:     51.823  MISS %:     48.177   MPKI: 3.9519
LLC RFO       ACCESS:     883526  HIT:     209013  MISS:     674513  HIT %:    23.6567  MISS %:    76.3433   MPKI: 13.4903
LLC PREFETCH  ACCESS:     507970  HIT:     124838  MISS:     383132  HIT %:    24.5759  MISS %:    75.4241   MPKI: 7.66264
LLC WRITEBACK ACCESS:    1091303  HIT:     384658  MISS:     706645  HIT %:    35.2476  MISS %:    64.7524   MPKI: 14.1329
LLC LOAD TRANSLATION ACCESS:      30336  HIT:       8710  MISS:      21626  HIT %:    28.7118  MISS %:    71.2882   MPKI: 0.43252
LLC TRANSLATION FROM L1D PREFETCHER ACCESS:        988  HIT:        334  MISS:        654  HIT %:    33.8057  MISS %:    66.1943   MPKI: 0.01308
LLC PREFETCH  REQUESTED:          0  ISSUED:          0  USEFUL:       2632  USELESS:     387721
LLC USEFUL LOAD PREFETCHES:       2632 PREFETCH ISSUED TO LOWER LEVEL:     383265  ACCURACY: 0.686731
LLC TIMELY PREFETCHES:       2632 LATE PREFETCHES: 133 DROPPED PREFETCHES: 0
LLC PREFETCHES SAME FILL-ORIGIN LEVEL: 23123 DIFFERENT FILL-ORIGIN LEVEL: 0
LLC AVERAGE MISS LATENCY: 142.574 cycles
LLC RQ	ACCESS:    1324997	FORWARD:          0	MERGED:          0	TO_CACHE:    1324994
LLC WQ	ACCESS:    1091303	FORWARD:          3	MERGED:          0	TO_CACHE:    1091303
LLC PQ	ACCESS:     508145	FORWARD:          0	MERGED:         10	TO_CACHE:     508135

LLC Dense regions hint to LLC: 0

RAW hits: 1297664
Loads Generated: 11983945
Loads sent to L1D: 10686281
Stores Generated: 8106873
Stores sent to L1D: 8106889
Major fault: 0 Minor fault: 25901
Allocated PAGES: 25901
I-Shadow cache 408 bytes
Touched + WorthPF tables 6144 bytes 
MMA filter 174 bytes 
FNL filter 272 bytes 
TOTAL PREFETCHER STORAGE SIZE: 25174 bytes
CPU 0 L1I next line prefetcher final stats
------------------
Depth Distribution
------------------
depth 0: 185183
depth 1: 5362166
depth 2: 1758497
depth 3: 323569
depth 4: 645
depth 5: 385
depth 6: 251
depth 7: 143
depth 8: 27
depth 9: 70
depth 10: 3
depth 11: 4
depth 12: 0
depth 13: 0
depth 14: 0
depth 15: 0
depth 16: 0
depth 17: 0
depth 18: 0
depth 19: 0
depth 20: 0
depth 21: 0
depth 22: 0
depth 23: 0
depth 24: 0
depth 25: 0
depth 26: 0
depth 27: 0
depth 28: 0
depth 29: 0
Total: 7630943
------------------
ST read accesses: 3504026
ST write accesses: 154797
PT read accesses: 48217258
PT write accesses: 5004414
FILTER read accesses: 15879266
FILTER write accesses: 4721912
GHR read accesses: 4923063
GHR write accesses: 512878
PERC read accesses: 303346872
PERC write accesses: 4529008
GHR counter read accesses: 7317646
GHR counter write accesses: 10275591
GHR ip read accesses: 12900177
GHR ip write accesses: 14635292
ST tag read accesses: 1485554660
ST tag write accesses: 120863430

DRAM Statistics
 CHANNEL 0
 RQ ROW_BUFFER_HIT:     440663  ROW_BUFFER_MISS:     836767
 DBUS_CONGESTED:        640
 WQ ROW_BUFFER_HIT:     198715  ROW_BUFFER_MISS:     574794  FULL:      11807

 AVG_CONGESTED_CYCLE: 3
 All warmup complete: 2
Channel 0 Bank busy for read cycles: 0
Channel 0 Bank busy for write cycles: 0
Channel 0
Rank 0
0banks busy for read cycles: 21722456
0banks busy for write cycles: 53425
1banks busy for read cycles: 26106235
1banks busy for write cycles: 8413906
2banks busy for read cycles: 16659128
2banks busy for write cycles: 5187055
3banks busy for read cycles: 7756425
3banks busy for write cycles: 3553147
4banks busy for read cycles: 3883059
4banks busy for write cycles: 2585805
5banks busy for read cycles: 1020424
5banks busy for write cycles: 1949936
6banks busy for read cycles: 735479
6banks busy for write cycles: 1578422
7banks busy for read cycles: 959698
7banks busy for write cycles: 2047576
8banks busy for read cycles: 4383982
8banks busy for write cycles: 9881363

CPU 0 Branch Prediction Accuracy: 99.2186% MPKI: 1.3219 Average ROB Occupancy at Mispredict: 133.567
Branch types
NOT_BRANCH: 41540709 83.0814%
BRANCH_DIRECT_JUMP: 462382 0.924764%
BRANCH_INDIRECT: 45460 0.09092%
BRANCH_CONDITIONAL: 6209260 12.4185%
BRANCH_DIRECT_CALL: 666239 1.33248%
BRANCH_INDIRECT_CALL: 204728 0.409456%
BRANCH_RETURN: 870975 1.74195%
BRANCH_OTHER: 0 0%

DRAM PAGES: 1048576
Allocated PAGES: 25901
