
*** ChampSim Multicore Out-of-Order Simulator ***

Warmup Instructions: 50000000
Simulation Instructions: 50000000
Number of CPUs: 1
LLC sets: 2048
LLC ways: 16
Off-chip DRAM Size: 4096 MB Channels: 1 Width: 64-bit Data Rate: 6400 MT/s
CPU 0 runs ../IPC-traces//server_018.champsimtrace.xz
.xz
BTB has LRU replacement policy
ITLB has LRU replacement policy
DTLB has LRU replacement policy
STLB has LRU replacement policy
CPU 0 L1I next line prefetcher
L1I has LRU replacement policy
L1D has LRU replacement policy
Bingo PHT WAYS: 16 and PHT_SIZE: 16384
Initialize SRRIP state for L2C
Initialize DRRIP state for LLC
Heartbeat CPU 0 instructions: 10000003 cycles: 3275966 heartbeat IPC: 3.05254 cumulative IPC: 3.05254 (Simulation time: 0 hr 3 min 35 sec) 
Heartbeat CPU 0 instructions: 20000001 cycles: 6545034 heartbeat IPC: 3.05898 cumulative IPC: 3.05575 (Simulation time: 0 hr 6 min 26 sec) 
Heartbeat CPU 0 instructions: 30000001 cycles: 9697179 heartbeat IPC: 3.17244 cumulative IPC: 3.09368 (Simulation time: 0 hr 9 min 14 sec) 
Heartbeat CPU 0 instructions: 40000002 cycles: 12874051 heartbeat IPC: 3.14775 cumulative IPC: 3.10703 (Simulation time: 0 hr 11 min 40 sec) 
Heartbeat CPU 0 instructions: 50000003 cycles: 16137304 heartbeat IPC: 3.06443 cumulative IPC: 3.09841 (Simulation time: 0 hr 13 min 51 sec) 

Warmup complete CPU 0 instructions: 50000003 cycles: 16137304 (Simulation time: 0 hr 13 min 51 sec) 

Heartbeat CPU 0 instructions: 60000000 cycles: 37176032 heartbeat IPC: 0.475314 cumulative IPC: 0.475314 (Simulation time: 0 hr 17 min 32 sec) 
Heartbeat CPU 0 instructions: 70000000 cycles: 57816070 heartbeat IPC: 0.484495 cumulative IPC: 0.479861 (Simulation time: 0 hr 21 min 8 sec) 
Heartbeat CPU 0 instructions: 80000000 cycles: 77682503 heartbeat IPC: 0.503362 cumulative IPC: 0.487447 (Simulation time: 0 hr 24 min 36 sec) 
Heartbeat CPU 0 instructions: 90000000 cycles: 97413237 heartbeat IPC: 0.506824 cumulative IPC: 0.492151 (Simulation time: 0 hr 28 min 22 sec) 
Heartbeat CPU 0 instructions: 100000001 cycles: 117042515 heartbeat IPC: 0.509443 cumulative IPC: 0.495515 (Simulation time: 0 hr 31 min 26 sec) 
Finished CPU 0 instructions: 50000002 cycles: 100905212 cumulative IPC: 0.495515 (Simulation time: 0 hr 31 min 26 sec) 

ChampSim completed all CPUs

Region of Interest Statistics

CPU 0 cumulative IPC: 0.495515 instructions: 50000002 cycles: 100905212

CPU 0 Average Load ROB stall cycles: 3.1078e+07
CPU 0 Fraction of times ROB stalled by Loads: 46.0772
CPU 0 Percentage of Load stall cycles in Total stall cycles: 2.64139e+08
Issued all: 52348658
Issued LT all: 47045023
rob_not_full_when_issued_lt_all: 16913378
Issued LT one: 41250352
rob_not_full_when_issued_lt_one: 12898050
FVP critical_dynamic_instances_0: 2671377
FVP unique_critical_ips_0: 2865
 Total stall cycles: 83304319
 Total load stall cycles: 220039458648914
Unique Load IPs: 6266
CPU 0 NUM of IPS identified critical: 0
CPU 0 Num of Load IPs stalling ROB: 0
Threshold modification factor: 0
Trouble in retire width: -nan
MaC = Marked as critical.
lt_50_percent_before_Mac: 0
gt_90_percent_before_Mac: 0
gt_75_percent_before_Mac: 0
gt_50_percent_before_Mac: 0
stall_proportion_bin_same_before_after: 0
stall_proportion_bin_lower_before_after: 0
stall_proportion_bin_upper_before_after: 0
average_stall_proportion_before: -nan
average_stall_proportion_after: -nan
Critical IP stalls, total frequency: 0
Non-critical IP stalls, total frequency: 0
Total Freq all stalling IPs: 0
Critical_IP_Detector_Accuracy_70: 0.00034904
Critical_IP_Detector_Accuracy_80: 0.00034904
Critical_IP_Detector_Accuracy_90: 0.00034904
Critical_IP_Detector_Coverage_70: 1
Critical_IP_Detector_Coverage_80: 1
Critical_IP_Detector_Coverage_90: 1
stat_90_percent_critical_ip_stalls_freq: 287187
stat_90_percent_non_critical_ip_stalls_freq: 18446744073709264429
AVERAGE_ROB_Occupancy_90_Percent_Critical_IP_Stalls: 313.318
AVERAGE_ROB_Occupancy_90_Percent_Non_Critical_IP_Stalls: 2.94631e-11
Critical_IP_ROB_Stalls_Bucket_0: 0
Non-critical_IP_ROB_Stalls_Bucket_0: 489112
Critical_IP_ROB_Stalls_Bucket_1: 0
Non-critical_IP_ROB_Stalls_Bucket_1: 609391
Critical_IP_ROB_Stalls_Bucket_2: 0
Non-critical_IP_ROB_Stalls_Bucket_2: 448087
Critical_IP_ROB_Stalls_Bucket_3: 0
Non-critical_IP_ROB_Stalls_Bucket_3: 274808
Critical_IP_ROB_Stalls_Bucket_4: 0
Non-critical_IP_ROB_Stalls_Bucket_4: 166991
Critical_IP_ROB_Stalls_Bucket_5: 0
Non-critical_IP_ROB_Stalls_Bucket_5: 148372
Critical_IP_ROB_Stalls_Bucket_6: 0
Non-critical_IP_ROB_Stalls_Bucket_6: 1125606
0 => IPs accounting for >50 percent of stalls, 1 => 55, 2 => 60, 3 => 65 and so on till 90.
percent50: inf num IPs:  1
percent55: inf num IPs: 1
percent60: inf num IPs: 1
percent65: inf num IPs: 1
percent70: inf num IPs: 1
percent75: inf num IPs: 1
percent80: inf num IPs: 1
percent85: inf num IPs: 1
percent90: inf num IPs: 1
Critical_ROB_Stalls_Percent_0_Bucket_0: 658
Non-critical_ROB_Stalls_Percent_0_Bucket_0: 488454
Critical_ROB_Stalls_Percent_0_Bucket_1: 3483
Non-critical_ROB_Stalls_Percent_0_Bucket_1: 605908
Critical_ROB_Stalls_Percent_0_Bucket_2: 13298
Non-critical_ROB_Stalls_Percent_0_Bucket_2: 434789
Critical_ROB_Stalls_Percent_0_Bucket_3: 19896
Non-critical_ROB_Stalls_Percent_0_Bucket_3: 254912
Critical_ROB_Stalls_Percent_0_Bucket_4: 15664
Non-critical_ROB_Stalls_Percent_0_Bucket_4: 151327
Critical_ROB_Stalls_Percent_0_Bucket_5: 14876
Non-critical_ROB_Stalls_Percent_0_Bucket_5: 133496
Critical_ROB_Stalls_Percent_0_Bucket_6: 219312
Non-critical_ROB_Stalls_Percent_0_Bucket_6: 906294
Critical_ROB_Stalls_Percent_1_Bucket_0: 658
Non-critical_ROB_Stalls_Percent_1_Bucket_0: 488454
Critical_ROB_Stalls_Percent_1_Bucket_1: 3483
Non-critical_ROB_Stalls_Percent_1_Bucket_1: 605908
Critical_ROB_Stalls_Percent_1_Bucket_2: 13298
Non-critical_ROB_Stalls_Percent_1_Bucket_2: 434789
Critical_ROB_Stalls_Percent_1_Bucket_3: 19896
Non-critical_ROB_Stalls_Percent_1_Bucket_3: 254912
Critical_ROB_Stalls_Percent_1_Bucket_4: 15664
Non-critical_ROB_Stalls_Percent_1_Bucket_4: 151327
Critical_ROB_Stalls_Percent_1_Bucket_5: 14876
Non-critical_ROB_Stalls_Percent_1_Bucket_5: 133496
Critical_ROB_Stalls_Percent_1_Bucket_6: 219312
Non-critical_ROB_Stalls_Percent_1_Bucket_6: 906294
Critical_ROB_Stalls_Percent_2_Bucket_0: 658
Non-critical_ROB_Stalls_Percent_2_Bucket_0: 488454
Critical_ROB_Stalls_Percent_2_Bucket_1: 3483
Non-critical_ROB_Stalls_Percent_2_Bucket_1: 605908
Critical_ROB_Stalls_Percent_2_Bucket_2: 13298
Non-critical_ROB_Stalls_Percent_2_Bucket_2: 434789
Critical_ROB_Stalls_Percent_2_Bucket_3: 19896
Non-critical_ROB_Stalls_Percent_2_Bucket_3: 254912
Critical_ROB_Stalls_Percent_2_Bucket_4: 15664
Non-critical_ROB_Stalls_Percent_2_Bucket_4: 151327
Critical_ROB_Stalls_Percent_2_Bucket_5: 14876
Non-critical_ROB_Stalls_Percent_2_Bucket_5: 133496
Critical_ROB_Stalls_Percent_2_Bucket_6: 219312
Non-critical_ROB_Stalls_Percent_2_Bucket_6: 906294
Critical_ROB_Stalls_Percent_3_Bucket_0: 658
Non-critical_ROB_Stalls_Percent_3_Bucket_0: 488454
Critical_ROB_Stalls_Percent_3_Bucket_1: 3483
Non-critical_ROB_Stalls_Percent_3_Bucket_1: 605908
Critical_ROB_Stalls_Percent_3_Bucket_2: 13298
Non-critical_ROB_Stalls_Percent_3_Bucket_2: 434789
Critical_ROB_Stalls_Percent_3_Bucket_3: 19896
Non-critical_ROB_Stalls_Percent_3_Bucket_3: 254912
Critical_ROB_Stalls_Percent_3_Bucket_4: 15664
Non-critical_ROB_Stalls_Percent_3_Bucket_4: 151327
Critical_ROB_Stalls_Percent_3_Bucket_5: 14876
Non-critical_ROB_Stalls_Percent_3_Bucket_5: 133496
Critical_ROB_Stalls_Percent_3_Bucket_6: 219312
Non-critical_ROB_Stalls_Percent_3_Bucket_6: 906294
Critical_ROB_Stalls_Percent_4_Bucket_0: 658
Non-critical_ROB_Stalls_Percent_4_Bucket_0: 488454
Critical_ROB_Stalls_Percent_4_Bucket_1: 3483
Non-critical_ROB_Stalls_Percent_4_Bucket_1: 605908
Critical_ROB_Stalls_Percent_4_Bucket_2: 13298
Non-critical_ROB_Stalls_Percent_4_Bucket_2: 434789
Critical_ROB_Stalls_Percent_4_Bucket_3: 19896
Non-critical_ROB_Stalls_Percent_4_Bucket_3: 254912
Critical_ROB_Stalls_Percent_4_Bucket_4: 15664
Non-critical_ROB_Stalls_Percent_4_Bucket_4: 151327
Critical_ROB_Stalls_Percent_4_Bucket_5: 14876
Non-critical_ROB_Stalls_Percent_4_Bucket_5: 133496
Critical_ROB_Stalls_Percent_4_Bucket_6: 219312
Non-critical_ROB_Stalls_Percent_4_Bucket_6: 906294
Critical_ROB_Stalls_Percent_5_Bucket_0: 658
Non-critical_ROB_Stalls_Percent_5_Bucket_0: 488454
Critical_ROB_Stalls_Percent_5_Bucket_1: 3483
Non-critical_ROB_Stalls_Percent_5_Bucket_1: 605908
Critical_ROB_Stalls_Percent_5_Bucket_2: 13298
Non-critical_ROB_Stalls_Percent_5_Bucket_2: 434789
Critical_ROB_Stalls_Percent_5_Bucket_3: 19896
Non-critical_ROB_Stalls_Percent_5_Bucket_3: 254912
Critical_ROB_Stalls_Percent_5_Bucket_4: 15664
Non-critical_ROB_Stalls_Percent_5_Bucket_4: 151327
Critical_ROB_Stalls_Percent_5_Bucket_5: 14876
Non-critical_ROB_Stalls_Percent_5_Bucket_5: 133496
Critical_ROB_Stalls_Percent_5_Bucket_6: 219312
Non-critical_ROB_Stalls_Percent_5_Bucket_6: 906294
Critical_ROB_Stalls_Percent_6_Bucket_0: 658
Non-critical_ROB_Stalls_Percent_6_Bucket_0: 488454
Critical_ROB_Stalls_Percent_6_Bucket_1: 3483
Non-critical_ROB_Stalls_Percent_6_Bucket_1: 605908
Critical_ROB_Stalls_Percent_6_Bucket_2: 13298
Non-critical_ROB_Stalls_Percent_6_Bucket_2: 434789
Critical_ROB_Stalls_Percent_6_Bucket_3: 19896
Non-critical_ROB_Stalls_Percent_6_Bucket_3: 254912
Critical_ROB_Stalls_Percent_6_Bucket_4: 15664
Non-critical_ROB_Stalls_Percent_6_Bucket_4: 151327
Critical_ROB_Stalls_Percent_6_Bucket_5: 14876
Non-critical_ROB_Stalls_Percent_6_Bucket_5: 133496
Critical_ROB_Stalls_Percent_6_Bucket_6: 219312
Non-critical_ROB_Stalls_Percent_6_Bucket_6: 906294
Critical_ROB_Stalls_Percent_7_Bucket_0: 658
Non-critical_ROB_Stalls_Percent_7_Bucket_0: 488454
Critical_ROB_Stalls_Percent_7_Bucket_1: 3483
Non-critical_ROB_Stalls_Percent_7_Bucket_1: 605908
Critical_ROB_Stalls_Percent_7_Bucket_2: 13298
Non-critical_ROB_Stalls_Percent_7_Bucket_2: 434789
Critical_ROB_Stalls_Percent_7_Bucket_3: 19896
Non-critical_ROB_Stalls_Percent_7_Bucket_3: 254912
Critical_ROB_Stalls_Percent_7_Bucket_4: 15664
Non-critical_ROB_Stalls_Percent_7_Bucket_4: 151327
Critical_ROB_Stalls_Percent_7_Bucket_5: 14876
Non-critical_ROB_Stalls_Percent_7_Bucket_5: 133496
Critical_ROB_Stalls_Percent_7_Bucket_6: 219312
Non-critical_ROB_Stalls_Percent_7_Bucket_6: 906294
Critical_ROB_Stalls_Percent_8_Bucket_0: 658
Non-critical_ROB_Stalls_Percent_8_Bucket_0: 488454
Critical_ROB_Stalls_Percent_8_Bucket_1: 3483
Non-critical_ROB_Stalls_Percent_8_Bucket_1: 605908
Critical_ROB_Stalls_Percent_8_Bucket_2: 13298
Non-critical_ROB_Stalls_Percent_8_Bucket_2: 434789
Critical_ROB_Stalls_Percent_8_Bucket_3: 19896
Non-critical_ROB_Stalls_Percent_8_Bucket_3: 254912
Critical_ROB_Stalls_Percent_8_Bucket_4: 15664
Non-critical_ROB_Stalls_Percent_8_Bucket_4: 151327
Critical_ROB_Stalls_Percent_8_Bucket_5: 14876
Non-critical_ROB_Stalls_Percent_8_Bucket_5: 133496
Critical_ROB_Stalls_Percent_8_Bucket_6: 219312
Non-critical_ROB_Stalls_Percent_8_Bucket_6: 906294
Average ROB occupancy Load Stall Begin: 185.678
Average ROB occupancy Load Stall End: 194.178
Min ROB occupancy Load Stall Begin: 1
Max ROB occupancy Load Stall Begin: 352
Min ROB occupancy Load Stall End: 1
Max ROB occupancy Load Stall End: 352
Average ROB occupancy Critical Load Stall Begin: -nan
Average ROB occupancy Critical Load Stall End: -nan
Min ROB occupancy Critical Load Stall Begin: 400
Max ROB occupancy Critical Load Stall Begin: 0
Min ROB occupancy Critical Load Stall End: 400
Max ROB occupancy Critical Load Stall End: 0
 ROB Load Stall Begin Bucket Count 0: 694401
 ROB Load Stall End Bucket Count 0: 489112
 ROB Critical Load Stall Begin Bucket Count 0: 0
 ROB Critical Load Stall End Bucket Count 0: 0
 ROB Load Stall Begin Bucket Count 1: 542178
 ROB Load Stall End Bucket Count 1: 609391
 ROB Critical Load Stall Begin Bucket Count 1: 0
 ROB Critical Load Stall End Bucket Count 1: 0
 ROB Load Stall Begin Bucket Count 2: 396916
 ROB Load Stall End Bucket Count 2: 448087
 ROB Critical Load Stall Begin Bucket Count 2: 0
 ROB Critical Load Stall End Bucket Count 2: 0
 ROB Load Stall Begin Bucket Count 3: 229278
 ROB Load Stall End Bucket Count 3: 274808
 ROB Critical Load Stall Begin Bucket Count 3: 0
 ROB Critical Load Stall End Bucket Count 3: 0
 ROB Load Stall Begin Bucket Count 4: 153462
 ROB Load Stall End Bucket Count 4: 166991
 ROB Critical Load Stall Begin Bucket Count 4: 0
 ROB Critical Load Stall End Bucket Count 4: 0
 ROB Load Stall Begin Bucket Count 5: 150570
 ROB Load Stall End Bucket Count 5: 148372
 ROB Critical Load Stall Begin Bucket Count 5: 0
 ROB Critical Load Stall End Bucket Count 5: 0
 ROB Load Stall Begin Bucket Count 6: 1095562
 ROB Load Stall End Bucket Count 6: 1125606
 ROB Critical Load Stall Begin Bucket Count 6: 0
 ROB Critical Load Stall End Bucket Count 6: 0
PIST Tag Read Accesses: 0
PIST Read Accesses: 0
PIST Tag Write Accesses: 0
PIST Write Accesses: 0
Criticality detector called times: 0
Max global_stall_cycles_count: 0
Threshold Modified: 0 times, factor: 0
ITLB TOTAL     ACCESS:   10388912  HIT:    9914875  MISS:     474037  HIT %:    95.4371  MISS %:    4.56291   MPKI: 9.48074
ITLB LOAD TRANSLATION ACCESS:    8479709  HIT:    8469919  MISS:       9790  HIT %:    99.8845  MISS %:   0.115452   MPKI: 0.1958
ITLB TRANSLATION FROM L1D PREFETCHER ACCESS:    1909203  HIT:    1444956  MISS:     464247  HIT %:    75.6837  MISS %:    24.3163   MPKI: 9.28494
ITLB PREFETCH  REQUESTED:          0  ISSUED:          0  USEFUL:     415956  USELESS:      48290
ITLB USEFUL LOAD PREFETCHES:     415956 PREFETCH ISSUED TO LOWER LEVEL:          0  ACCURACY: inf
ITLB TIMELY PREFETCHES:     415956 LATE PREFETCHES: 265 DROPPED PREFETCHES: 0
ITLB PREFETCHES SAME FILL-ORIGIN LEVEL: 0 DIFFERENT FILL-ORIGIN LEVEL: 0
ITLB AVERAGE MISS LATENCY: 37907.1 cycles
ITLB RQ	ACCESS:   14804982	FORWARD:          0	MERGED:    4368429	TO_CACHE:   10436553

DTLB TOTAL     ACCESS:   10814233  HIT:   10390947  MISS:     423286  HIT %:    96.0858  MISS %:    3.91416   MPKI: 8.46572
DTLB LOAD TRANSLATION ACCESS:   10814233  HIT:   10390947  MISS:     423286  HIT %:    96.0858  MISS %:    3.91416   MPKI: 8.46572
DTLB PREFETCH  REQUESTED:          0  ISSUED:          0  USEFUL:          0  USELESS:          0
DTLB USEFUL LOAD PREFETCHES:          0 PREFETCH ISSUED TO LOWER LEVEL:          0  ACCURACY: -nan
DTLB TIMELY PREFETCHES:          0 LATE PREFETCHES: 0 DROPPED PREFETCHES: 0
DTLB PREFETCHES SAME FILL-ORIGIN LEVEL: 0 DIFFERENT FILL-ORIGIN LEVEL: 0
DTLB AVERAGE MISS LATENCY: 19.4837 cycles
DTLB RQ	ACCESS:   16052893	FORWARD:          0	MERGED:    5155255	TO_CACHE:   10897638

STLB TOTAL     ACCESS:     897322  HIT:     861448  MISS:      35874  HIT %:    96.0021  MISS %:     3.9979   MPKI: 0.71748
STLB LOAD TRANSLATION ACCESS:     432810  HIT:     397535  MISS:      35275  HIT %:    91.8498  MISS %:    8.15023   MPKI: 0.7055
STLB TRANSLATION FROM L1D PREFETCHER ACCESS:     464512  HIT:     463913  MISS:        599  HIT %:     99.871  MISS %:   0.128953   MPKI: 0.01198
STLB PREFETCH  REQUESTED:          0  ISSUED:          0  USEFUL:        407  USELESS:        173
STLB USEFUL LOAD PREFETCHES:        407 PREFETCH ISSUED TO LOWER LEVEL:          0  ACCURACY: inf
STLB TIMELY PREFETCHES:        407 LATE PREFETCHES: 0 DROPPED PREFETCHES: 0
STLB PREFETCHES SAME FILL-ORIGIN LEVEL: 0 DIFFERENT FILL-ORIGIN LEVEL: 0
STLB AVERAGE MISS LATENCY: 128.65 cycles
STLB RQ	ACCESS:     897322	FORWARD:          0	MERGED:          0	TO_CACHE:     897322

STLB Hit, L1D data hit: 0
STLB Hit, L2C data hit: 0
STLB Hit, LLC data hit: 0
STLB Hit, LLC data miss: 0
STLB STLB hints to L2: 0
L1D TOTAL     ACCESS:   13679188  HIT:   11874805  MISS:    1804383  HIT %:    86.8093  MISS %:    13.1907   MPKI: 36.0877
L1D LOAD      ACCESS:    7369363  HIT:    6532626  MISS:     836737  HIT %:    88.6457  MISS %:    11.3543   MPKI: 16.7347
L1D RFO       ACCESS:    6309825  HIT:    5342179  MISS:     967646  HIT %:    84.6645  MISS %:    15.3355   MPKI: 19.3529
L1D PREFETCH  REQUESTED:          0  ISSUED:          0  USEFUL:          0  USELESS:          0
L1D USEFUL LOAD PREFETCHES:          0 PREFETCH ISSUED TO LOWER LEVEL:          0  ACCURACY: -nan
L1D TIMELY PREFETCHES:          0 LATE PREFETCHES: 0 DROPPED PREFETCHES: 0
L1D PREFETCHES SAME FILL-ORIGIN LEVEL: 0 DIFFERENT FILL-ORIGIN LEVEL: 0
L1D AVERAGE MISS LATENCY: 151.804 cycles
L1D RQ	ACCESS:   11032515	FORWARD:          0	MERGED:    3500851	TO_CACHE:    7410612
L1D WQ	ACCESS:    8736102	FORWARD:     121052	MERGED:      93821	TO_CACHE:    8642281

L1D UNIQUE REGIONS ACCESSED: 0
L1D REGIONS CONFLICTS: 0
L1D Cross Page Prefetch Requests: 0
L1D Same Page Prefetch Requests: 0
L1D ROI Sum of L1D PQ occupancy: 0
L1D PREFETCHES PUSHED FROM L2C: 0
L1I TOTAL     ACCESS:   14736957  HIT:   11590400  MISS:    3146557  HIT %:    78.6485  MISS %:    21.3515   MPKI: 62.9311
L1I LOAD      ACCESS:    9896385  HIT:    9880862  MISS:      15523  HIT %:    99.8431  MISS %:   0.156855   MPKI: 0.31046
L1I PREFETCH  ACCESS:    4840572  HIT:    1709538  MISS:    3131034  HIT %:    35.3169  MISS %:    64.6831   MPKI: 62.6207
L1I PREFETCH  REQUESTED:    5077120  ISSUED:    5069490  USEFUL:    2604058  USELESS:     526921
L1I USEFUL LOAD PREFETCHES:    2604058 PREFETCH ISSUED TO LOWER LEVEL:    3139298  ACCURACY: 82.9503
L1I TIMELY PREFETCHES:    2604058 LATE PREFETCHES: 5605 DROPPED PREFETCHES: 0
L1I PREFETCHES SAME FILL-ORIGIN LEVEL: 3139298 DIFFERENT FILL-ORIGIN LEVEL: 0
L1I AVERAGE MISS LATENCY: 121743 cycles
L1I RQ	ACCESS:   14166319	FORWARD:          0	MERGED:    4266767	TO_CACHE:    9899552
L1I PQ	ACCESS:    5069490	FORWARD:          0	MERGED:     164060	TO_CACHE:    4905430

BTB TOTAL     ACCESS:    5333738  HIT:    5067581  MISS:     266157  HIT %:    95.0099  MISS %:    4.99007   MPKI: 5.32314
BTB BRANCH_DIRECT_JUMP	ACCESS:     458651  HIT:     456812  MISS:       1839
BTB BRANCH_INDIRECT	ACCESS:      48282  HIT:      48106  MISS:        176
BTB BRANCH_CONDITIONAL	ACCESS:    3005654  HIT:    2999755  MISS:       5899
BTB BRANCH_DIRECT_CALL	ACCESS:     744228  HIT:     740447  MISS:       3781
BTB BRANCH_INDIRECT_CALL	ACCESS:     166336  HIT:     137435  MISS:      28901
BTB BRANCH_RETURN	ACCESS:     910587  HIT:     685026  MISS:     225561
BTB BRANCH_OTHER ACCESS:          0  HIT:          0  MISS:          0

L2C TOTAL     ACCESS:    6514532  HIT:    4653692  MISS:    1860840  HIT %:    71.4356  MISS %:    28.5644   MPKI: 37.2168
L2C LOAD      ACCESS:     846645  HIT:     479841  MISS:     366804  HIT %:    56.6756  MISS %:    43.3244   MPKI: 7.33608
L2C DATA LOAD MPKI: 7.24074
L2C INSTRUCTION LOAD MPKI: 0.09534
L2C RFO       ACCESS:     967642  HIT:      32333  MISS:     935309  HIT %:    3.34142  MISS %:    96.6586   MPKI: 18.7062
L2C PREFETCH  ACCESS:    3501331  HIT:    3036276  MISS:     465055  HIT %:    86.7178  MISS %:    13.2822   MPKI: 9.3011
L2C DATA PREFETCH MPKI: 6.01632
L2C INSTRUCTION PREFETCH MPKI: 3.28478
L2C WRITEBACK ACCESS:    1155553  HIT:    1088517  MISS:      67036  HIT %:    94.1988  MISS %:    5.80121   MPKI: 1.34072
L2C LOAD TRANSLATION ACCESS:      42428  HIT:      16505  MISS:      25923  HIT %:    38.9012  MISS %:    61.0988   MPKI: 0.51846
L2C TRANSLATION FROM L1D PREFETCHER ACCESS:        933  HIT:        220  MISS:        713  HIT %:    23.5798  MISS %:    76.4202   MPKI: 0.01426
L2C PREFETCH  REQUESTED:     372220  ISSUED:     372220  USEFUL:     284603  USELESS:     181927
L2C USEFUL LOAD PREFETCHES:     284603 PREFETCH ISSUED TO LOWER LEVEL:     466075  ACCURACY: 61.0638
L2C TIMELY PREFETCHES:     284603 LATE PREFETCHES: 1020 DROPPED PREFETCHES: 0
L2C PREFETCHES SAME FILL-ORIGIN LEVEL: 301836 DIFFERENT FILL-ORIGIN LEVEL: 0
L2C AVERAGE MISS LATENCY: 171.559 cycles
L2C RQ	ACCESS:    1857662	FORWARD:          0	MERGED:          0	TO_CACHE:    1857648
L2C WQ	ACCESS:    1155554	FORWARD:         14	MERGED:          0	TO_CACHE:    1155554
L2C PQ	ACCESS:    3508855	FORWARD:          0	MERGED:          0	TO_CACHE:    3508855

L2C Instructions Evicting Data 149958
L2C Translations Evicting Data 23918
L2C Data Evicting Data 1430040
L2C Instructions Evicting Instructions 16622
L2C Translations Evicting Instructions 2403
L2C Data Evicting Instructions 144907
L2C Instructions Evicting Translations 2426
L2C Translations Evicting Translations 315
L2C Data Evicting Translations 23215
L2C Dense regions hint from L2: 0
PSCL5 TOTAL     ACCESS:      35874  HIT:      35874  MISS:          0  HIT %:        100  MISS %:          0   MPKI: 0
PSCL5 LOAD TRANSLATION ACCESS:      35275  HIT:      35275  MISS:          0  HIT %:        100  MISS %:          0   MPKI: 0
PSCL5 TRANSLATION FROM L1D PREFETCHER ACCESS:        599  HIT:        599  MISS:          0  HIT %:        100  MISS %:          0   MPKI: 0
PSCL5 PREFETCH  REQUESTED:          0  ISSUED:          0  USEFUL:          0  USELESS:          0
PSCL5 USEFUL LOAD PREFETCHES:          0 PREFETCH ISSUED TO LOWER LEVEL:          0  ACCURACY: -nan
PSCL5 TIMELY PREFETCHES:          0 LATE PREFETCHES: 0 DROPPED PREFETCHES: 0
PSCL5 PREFETCHES SAME FILL-ORIGIN LEVEL: 0 DIFFERENT FILL-ORIGIN LEVEL: 0

PSCL4 TOTAL     ACCESS:      33623  HIT:      33523  MISS:        100  HIT %:    99.7026  MISS %:   0.297415   MPKI: 0.002
PSCL4 LOAD TRANSLATION ACCESS:      33059  HIT:      32959  MISS:        100  HIT %:    99.6975  MISS %:   0.302489   MPKI: 0.002
PSCL4 TRANSLATION FROM L1D PREFETCHER ACCESS:        564  HIT:        564  MISS:          0  HIT %:        100  MISS %:          0   MPKI: 0
PSCL4 PREFETCH  REQUESTED:          0  ISSUED:          0  USEFUL:          0  USELESS:          0
PSCL4 USEFUL LOAD PREFETCHES:          0 PREFETCH ISSUED TO LOWER LEVEL:          0  ACCURACY: -nan
PSCL4 TIMELY PREFETCHES:          0 LATE PREFETCHES: 0 DROPPED PREFETCHES: 0
PSCL4 PREFETCHES SAME FILL-ORIGIN LEVEL: 0 DIFFERENT FILL-ORIGIN LEVEL: 0

PSCL3 TOTAL     ACCESS:      35855  HIT:      35755  MISS:        100  HIT %:    99.7211  MISS %:   0.278901   MPKI: 0.002
PSCL3 LOAD TRANSLATION ACCESS:      35291  HIT:      35191  MISS:        100  HIT %:    99.7166  MISS %:   0.283358   MPKI: 0.002
PSCL3 TRANSLATION FROM L1D PREFETCHER ACCESS:        564  HIT:        564  MISS:          0  HIT %:        100  MISS %:          0   MPKI: 0
PSCL3 PREFETCH  REQUESTED:          0  ISSUED:          0  USEFUL:          0  USELESS:          0
PSCL3 USEFUL LOAD PREFETCHES:          0 PREFETCH ISSUED TO LOWER LEVEL:          0  ACCURACY: -nan
PSCL3 TIMELY PREFETCHES:          0 LATE PREFETCHES: 0 DROPPED PREFETCHES: 0
PSCL3 PREFETCHES SAME FILL-ORIGIN LEVEL: 0 DIFFERENT FILL-ORIGIN LEVEL: 0

PSCL2 TOTAL     ACCESS:      35874  HIT:      28560  MISS:       7314  HIT %:     79.612  MISS %:     20.388   MPKI: 0.14628
PSCL2 LOAD TRANSLATION ACCESS:      35555  HIT:      28241  MISS:       7314  HIT %:    79.4291  MISS %:    20.5709   MPKI: 0.14628
PSCL2 TRANSLATION FROM L1D PREFETCHER ACCESS:        319  HIT:        319  MISS:          0  HIT %:        100  MISS %:          0   MPKI: 0
PSCL2 PREFETCH  REQUESTED:          0  ISSUED:          0  USEFUL:          0  USELESS:          0
PSCL2 USEFUL LOAD PREFETCHES:          0 PREFETCH ISSUED TO LOWER LEVEL:          0  ACCURACY: -nan
PSCL2 TIMELY PREFETCHES:          0 LATE PREFETCHES: 0 DROPPED PREFETCHES: 0
PSCL2 PREFETCHES SAME FILL-ORIGIN LEVEL: 0 DIFFERENT FILL-ORIGIN LEVEL: 0

LLC TOTAL     ACCESS:    2879682  HIT:    1424300  MISS:    1455382  HIT %:    49.4603  MISS %:    50.5397   MPKI: 29.1076
LLC LOAD      ACCESS:     365795  HIT:     268827  MISS:      96968  HIT %:    73.4912  MISS %:    26.5088   MPKI: 1.93936
LLC RFO       ACCESS:     935293  HIT:     219282  MISS:     716011  HIT %:    23.4453  MISS %:    76.5547   MPKI: 14.3202
LLC PREFETCH  ACCESS:     466075  HIT:     185203  MISS:     280872  HIT %:    39.7367  MISS %:    60.2633   MPKI: 5.61744
LLC WRITEBACK ACCESS:    1085883  HIT:     732497  MISS:     353386  HIT %:    67.4563  MISS %:    32.5437   MPKI: 7.06772
LLC LOAD TRANSLATION ACCESS:      25923  HIT:      18190  MISS:       7733  HIT %:    70.1693  MISS %:    29.8307   MPKI: 0.15466
LLC TRANSLATION FROM L1D PREFETCHER ACCESS:        713  HIT:        301  MISS:        412  HIT %:     42.216  MISS %:     57.784   MPKI: 0.00824
LLC PREFETCH  REQUESTED:          0  ISSUED:          0  USEFUL:       1465  USELESS:     280017
LLC USEFUL LOAD PREFETCHES:       1465 PREFETCH ISSUED TO LOWER LEVEL:     280872  ACCURACY: 0.52159
LLC TIMELY PREFETCHES:       1465 LATE PREFETCHES: 0 DROPPED PREFETCHES: 0
LLC PREFETCHES SAME FILL-ORIGIN LEVEL: 0 DIFFERENT FILL-ORIGIN LEVEL: 0
LLC AVERAGE MISS LATENCY: 180.857 cycles
LLC RQ	ACCESS:    1327729	FORWARD:          0	MERGED:          0	TO_CACHE:    1327724
LLC WQ	ACCESS:    1085883	FORWARD:          5	MERGED:          0	TO_CACHE:    1085883
LLC PQ	ACCESS:     466075	FORWARD:          0	MERGED:          0	TO_CACHE:     466075

LLC Dense regions hint to LLC: 0

RAW hits: 1366036
Loads Generated: 12398552
Loads sent to L1D: 11032515
Stores Generated: 8736102
Stores sent to L1D: 8736102
Major fault: 0 Minor fault: 22612
Allocated PAGES: 22612
I-Shadow cache 408 bytes
Touched + WorthPF tables 6144 bytes 
MMA filter 174 bytes 
FNL filter 272 bytes 
TOTAL PREFETCHER STORAGE SIZE: 25174 bytes
CPU 0 L1I next line prefetcher final stats
[Bingo] PHT Access: 46511
[Bingo] PHT Hit PC+Addr: 17382
[Bingo] PHT Hit PC+Offs: 20304
[Bingo] PHT Miss: 8825
[Bingo] Prefetch PC+Addr: 0
[Bingo] Prefetch PC+Offs: 0
[Bingo] Useful PC+Addr: 0
[Bingo] Useful PC+Offs: 0
[Bingo] Useless PC+Addr: 0
[Bingo] Useless PC+Offs: 0
[Bingo] L1 Prefetch per Region: 0
[Bingo] L2 Prefetch per Region: 10.8943
[Bingo] L3 Prefetch per Region: 0
[Bingo] No Prefetch per Region: 21.1057
[Bingo] Number of Voters Mean: 10.387
[Bingo] Number of Voters SD: 9.34285
PHT read accesses: 410032
PHT write accesses: 22190
AT read accesses: 357141
AT write accesses: 357175
FT read accesses: 97020
FT write accesses: 46511
PS read accesses: 86818
PS write accesses: 37686
PHT tag read accesses: 1113474
PHT tag write accesses: 39572
AT tag read accesses: 36755908
AT tag write accesses: 379354
FT tag read accesses: 32396188
FT tag write accesses: 116516
PS tag read accesses: 7428807
PS tag write accesses: 124450

DRAM Statistics
 CHANNEL 0
 RQ ROW_BUFFER_HIT:     552198  ROW_BUFFER_MISS:     549749
 DBUS_CONGESTED:        475
 WQ ROW_BUFFER_HIT:     169892  ROW_BUFFER_MISS:     586635  FULL:       7786

 AVG_CONGESTED_CYCLE: 3
 All warmup complete: 2
Channel 0 Bank busy for read cycles: 0
Channel 0 Bank busy for write cycles: 0
Channel 0
Rank 0
0banks busy for read cycles: 36811566
0banks busy for write cycles: 60300
1banks busy for read cycles: 15904035
1banks busy for write cycles: 8780049
2banks busy for read cycles: 5981465
2banks busy for write cycles: 3608789
3banks busy for read cycles: 1494569
3banks busy for write cycles: 1848005
4banks busy for read cycles: 1691525
4banks busy for write cycles: 1319322
5banks busy for read cycles: 613598
5banks busy for write cycles: 1120424
6banks busy for read cycles: 774718
6banks busy for write cycles: 1092303
7banks busy for read cycles: 1416391
7banks busy for write cycles: 1767891
8banks busy for read cycles: 6869563
8banks busy for write cycles: 9750700

CPU 0 Branch Prediction Accuracy: 99.7114% MPKI: 0.47678 Average ROB Occupancy at Mispredict: 94.7476
Branch types
NOT_BRANCH: 41740729 83.4815%
BRANCH_DIRECT_JUMP: 458651 0.917302%
BRANCH_INDIRECT: 48282 0.096564%
BRANCH_CONDITIONAL: 5930847 11.8617%
BRANCH_DIRECT_CALL: 744228 1.48846%
BRANCH_INDIRECT_CALL: 166336 0.332672%
BRANCH_RETURN: 910587 1.82117%
BRANCH_OTHER: 0 0%

DRAM PAGES: 1048576
Allocated PAGES: 22612
