Initialize SIGNATURE TABLE
ST_SET: 1
ST_WAY: 256
ST_TAG_BIT: 16
ST_TAG_MASK: ffff

Initialize PATTERN TABLE
PT_SET: 512
PT_WAY: 4
SIG_DELTA_BIT: 7
C_SIG_BIT: 4
C_DELTA_BIT: 4

Initialize PREFETCH FILTER
FILTER_SET: 1024

Initialize PERCEPTRON
PERC_ENTRIES: 4096
PERC_FEATURES: 9
MANA initialize 
tds: 2 tdm: 4
size MANA SINGLE: 25.5 KB
size MANA NULTIPLE: 9.875 KB
size HOBPT: 0.703125 KB
size SRQ: 0.0644531 KB
size SABs: 0.0402832 KB
size prefetch queue: 0.453125 KB
total: 36.636 KB

*** ChampSim Multicore Out-of-Order Simulator ***

Warmup Instructions: 50000000
Simulation Instructions: 50000000
Number of CPUs: 1
LLC sets: 2048
LLC ways: 16
Off-chip DRAM Size: 4096 MB Channels: 1 Width: 64-bit Data Rate: 6400 MT/s
CPU 0 runs ../IPC-traces//server_019.champsimtrace.xz
.xz
BTB has LRU replacement policy
ITLB has LRU replacement policy
DTLB has LRU replacement policy
STLB has LRU replacement policy
L1I has LRU replacement policy
L1D has LRU replacement policy
Initialize SRRIP state for L2C
Initialize DRRIP state for LLC
Heartbeat CPU 0 instructions: 10000002 cycles: 3209000 heartbeat IPC: 3.11624 cumulative IPC: 3.11624 (Simulation time: 0 hr 5 min 34 sec) 
Heartbeat CPU 0 instructions: 20000001 cycles: 6411308 heartbeat IPC: 3.12275 cumulative IPC: 3.11949 (Simulation time: 0 hr 10 min 44 sec) 
Heartbeat CPU 0 instructions: 30000001 cycles: 9614146 heartbeat IPC: 3.12223 cumulative IPC: 3.1204 (Simulation time: 0 hr 15 min 45 sec) 
Heartbeat CPU 0 instructions: 40000002 cycles: 12833592 heartbeat IPC: 3.10612 cumulative IPC: 3.11682 (Simulation time: 0 hr 19 min 53 sec) 
Heartbeat CPU 0 instructions: 50000000 cycles: 16034463 heartbeat IPC: 3.12415 cumulative IPC: 3.11828 (Simulation time: 0 hr 23 min 20 sec) 

Warmup complete CPU 0 instructions: 50000004 cycles: 16034464 (Simulation time: 0 hr 23 min 20 sec) 

Epoch all ip prefetch: 0, epoch id: 2
Epoch all ip prefetch: 1, epoch id: 3
Epoch all ip prefetch: 0, epoch id: 4
Epoch all ip prefetch: 0, epoch id: 5
Epoch all ip prefetch: 0, epoch id: 6
Epoch all ip prefetch: 0, epoch id: 7
Epoch all ip prefetch: 0, epoch id: 8
Epoch all ip prefetch: 0, epoch id: 9
Epoch all ip prefetch: 0, epoch id: 10
Epoch all ip prefetch: 0, epoch id: 11
Heartbeat CPU 0 instructions: 60000003 cycles: 38294437 heartbeat IPC: 0.449237 cumulative IPC: 0.449237 (Simulation time: 0 hr 30 min 9 sec) 
Epoch all ip prefetch: 0, epoch id: 12
Epoch all ip prefetch: 0, epoch id: 13
Epoch all ip prefetch: 0, epoch id: 14
Epoch all ip prefetch: 0, epoch id: 15
Epoch all ip prefetch: 0, epoch id: 16
Epoch all ip prefetch: 0, epoch id: 17
Epoch all ip prefetch: 0, epoch id: 18
Epoch all ip prefetch: 0, epoch id: 19
Epoch all ip prefetch: 0, epoch id: 20
Epoch all ip prefetch: 0, epoch id: 21
Heartbeat CPU 0 instructions: 70000002 cycles: 64542910 heartbeat IPC: 0.380975 cumulative IPC: 0.412299 (Simulation time: 0 hr 36 min 10 sec) 
Epoch all ip prefetch: 0, epoch id: 22
Epoch all ip prefetch: 0, epoch id: 23
Epoch all ip prefetch: 0, epoch id: 24
Epoch all ip prefetch: 0, epoch id: 25
Epoch all ip prefetch: 0, epoch id: 26
Epoch all ip prefetch: 0, epoch id: 27
Epoch all ip prefetch: 0, epoch id: 28
Epoch all ip prefetch: 0, epoch id: 29
Epoch all ip prefetch: 0, epoch id: 30
Epoch all ip prefetch: 0, epoch id: 31
Heartbeat CPU 0 instructions: 80000002 cycles: 89244357 heartbeat IPC: 0.404835 cumulative IPC: 0.409781 (Simulation time: 0 hr 41 min 44 sec) 
Epoch all ip prefetch: 0, epoch id: 32
Epoch all ip prefetch: 0, epoch id: 33
Epoch all ip prefetch: 0, epoch id: 34
Epoch all ip prefetch: 0, epoch id: 35
Epoch all ip prefetch: 0, epoch id: 36
Epoch all ip prefetch: 0, epoch id: 37
Epoch all ip prefetch: 0, epoch id: 38
Epoch all ip prefetch: 0, epoch id: 39
Epoch all ip prefetch: 0, epoch id: 40
Epoch all ip prefetch: 0, epoch id: 41
Heartbeat CPU 0 instructions: 90000001 cycles: 109755519 heartbeat IPC: 0.487539 cumulative IPC: 0.426798 (Simulation time: 0 hr 49 min 31 sec) 
Epoch all ip prefetch: 0, epoch id: 42
Epoch all ip prefetch: 0, epoch id: 43
Epoch all ip prefetch: 0, epoch id: 44
Epoch all ip prefetch: 0, epoch id: 45
Epoch all ip prefetch: 0, epoch id: 46
Epoch all ip prefetch: 0, epoch id: 47
Epoch all ip prefetch: 0, epoch id: 48
Epoch all ip prefetch: 0, epoch id: 49
Epoch all ip prefetch: 0, epoch id: 50
Epoch all ip prefetch: 0, epoch id: 51
Heartbeat CPU 0 instructions: 100000002 cycles: 130184840 heartbeat IPC: 0.489493 cumulative IPC: 0.438019 (Simulation time: 0 hr 56 min 32 sec) 
Finished CPU 0 instructions: 50000002 cycles: 114150377 cumulative IPC: 0.438019 (Simulation time: 0 hr 56 min 32 sec) 

ChampSim completed all CPUs

Region of Interest Statistics

CPU 0 cumulative IPC: 0.438019 instructions: 50000002 cycles: 114150377

CPU 0 Average Load ROB stall cycles: 7.25256
CPU 0 Fraction of times ROB stalled by Loads: 32.7442
CPU 0 Percentage of Load stall cycles in Total stall cycles: 67.4301
CPU 0 NUM of IPS identified critical: 0

Average ROB occupancy Load Stall Begin: 137.212
Average ROB occupancy Load Stall End: 147.387
Min ROB occupancy Load Stall Begin: 1
Max ROB occupancy Load Stall Begin: 351
Min ROB occupancy Load Stall End: 1
Max ROB occupancy Load Stall End: 352
Average ROB occupancy Critical Load Stall Begin: -nan
Average ROB occupancy Critical Load Stall End: -nan
Min ROB occupancy Critical Load Stall Begin: 400
Max ROB occupancy Critical Load Stall Begin: 0
Min ROB occupancy Critical Load Stall End: 400
Max ROB occupancy Critical Load Stall End: 0
 ROB Load Stall Begin Bucket Count 0: 636185
 ROB Load Stall End Bucket Count 0: 494138
 ROB Critical Load Stall Begin Bucket Count 0: 0
 ROB Critical Load Stall End Bucket Count 0: 0
 ROB Load Stall Begin Bucket Count 1: 390307
 ROB Load Stall End Bucket Count 1: 439648
 ROB Critical Load Stall Begin Bucket Count 1: 0
 ROB Critical Load Stall End Bucket Count 1: 0
 ROB Load Stall Begin Bucket Count 2: 282327
 ROB Load Stall End Bucket Count 2: 312578
 ROB Critical Load Stall Begin Bucket Count 2: 0
 ROB Critical Load Stall End Bucket Count 2: 0
 ROB Load Stall Begin Bucket Count 3: 169182
 ROB Load Stall End Bucket Count 3: 202217
 ROB Critical Load Stall Begin Bucket Count 3: 0
 ROB Critical Load Stall End Bucket Count 3: 0
 ROB Load Stall Begin Bucket Count 4: 114579
 ROB Load Stall End Bucket Count 4: 122410
 ROB Critical Load Stall Begin Bucket Count 4: 0
 ROB Critical Load Stall End Bucket Count 4: 0
 ROB Load Stall Begin Bucket Count 5: 99785
 ROB Load Stall End Bucket Count 5: 102109
 ROB Critical Load Stall Begin Bucket Count 5: 0
 ROB Critical Load Stall End Bucket Count 5: 0
 ROB Load Stall Begin Bucket Count 6: 334147
 ROB Load Stall End Bucket Count 6: 353412
 ROB Critical Load Stall Begin Bucket Count 6: 0
 ROB Critical Load Stall End Bucket Count 6: 0
Threshold Modified: 1 times, factor: -1
Sturdy critical IP cache stats: 
 Unused entries: 109
Wobbly critical IP cache stats: 
 Unused entries: 256
ITLB TOTAL     ACCESS:   11191151  HIT:   10825171  MISS:     365980  HIT %:    96.7297  MISS %:    3.27026   MPKI: 7.3196
ITLB LOAD TRANSLATION ACCESS:    8400276  HIT:    8346621  MISS:      53655  HIT %:    99.3613  MISS %:   0.638729   MPKI: 1.0731
ITLB TRANSLATION FROM L1D PREFETCHER ACCESS:    2790875  HIT:    2478550  MISS:     312325  HIT %:    88.8091  MISS %:    11.1909   MPKI: 6.2465
ITLB AVERAGE MISS LATENCY: 7.80558e+06 cycles
ITLB RQ	ACCESS:   18229223	FORWARD:          0	MERGED:    6945528	TO_CACHE:   11283695

DTLB TOTAL     ACCESS:   10689425  HIT:   10246962  MISS:     442463  HIT %:    95.8607  MISS %:    4.13926   MPKI: 8.84926
DTLB LOAD TRANSLATION ACCESS:   10689425  HIT:   10246962  MISS:     442463  HIT %:    95.8607  MISS %:    4.13926   MPKI: 8.84926
DTLB AVERAGE MISS LATENCY: 26.0096 cycles
DTLB RQ	ACCESS:   15414067	FORWARD:          0	MERGED:    4644008	TO_CACHE:   10770059

STLB TOTAL     ACCESS:     808443  HIT:     742445  MISS:      65998  HIT %:    91.8364  MISS %:    8.16359   MPKI: 1.31996
STLB LOAD TRANSLATION ACCESS:     459163  HIT:     394058  MISS:      65105  HIT %:    85.8209  MISS %:    14.1791   MPKI: 1.3021
STLB TRANSLATION FROM L1D PREFETCHER ACCESS:     349280  HIT:     348387  MISS:        893  HIT %:    99.7443  MISS %:   0.255669   MPKI: 0.01786
STLB AVERAGE MISS LATENCY: 118.867 cycles
STLB RQ	ACCESS:     813310	FORWARD:          0	MERGED:          0	TO_CACHE:     813310

STLB Hit, L1D data hit: 0
STLB Hit, L2C data hit: 0
STLB Hit, LLC data hit: 0
STLB Hit, LLC data miss: 0
STLB STLB hints to L2: 0
L1D TOTAL     ACCESS:   13196056  HIT:   11407168  MISS:    1788888  HIT %:    86.4438  MISS %:    13.5562   MPKI: 35.7778
L1D LOAD      ACCESS:    7375218  HIT:    6502806  MISS:     872412  HIT %:     88.171  MISS %:     11.829   MPKI: 17.4482
L1D RFO       ACCESS:    5820838  HIT:    4904362  MISS:     916476  HIT %:    84.2553  MISS %:    15.7447   MPKI: 18.3295
L1D AVERAGE MISS LATENCY: 164.144 cycles
L1D RQ	ACCESS:   10782287	FORWARD:          0	MERGED:    3264970	TO_CACHE:    7402514
L1D WQ	ACCESS:    8106892	FORWARD:     114803	MERGED:      95339	TO_CACHE:    8011553

L1D UNIQUE REGIONS ACCESSED: 0
L1D REGIONS CONFLICTS: 0
L1D Cross Page Prefetch Requests: 0
L1D Same Page Prefetch Requests: 0
L1D ROI Sum of L1D PQ occupancy: 0
L1D PREFETCHES PUSHED FROM L2C: 0
L1I TOTAL     ACCESS:   17748721  HIT:   15534998  MISS:    2213723  HIT %:    87.5274  MISS %:    12.4726   MPKI: 44.2745
L1I LOAD      ACCESS:    9746939  HIT:    9432156  MISS:     314783  HIT %:    96.7704  MISS %:    3.22956   MPKI: 6.29566
L1I PREFETCH  ACCESS:    8001782  HIT:    6102842  MISS:    1898940  HIT %:    76.2685  MISS %:    23.7315   MPKI: 37.9788
L1I PREFETCH  REQUESTED:    9751753  ISSUED:    8945740  USEFUL:    1831488  USELESS:      67453
L1I USEFUL LOAD PREFETCHES:    1831488 PREFETCH ISSUED TO LOWER LEVEL:    2083546  ACCURACY: 87.9025
L1I TIMELY PREFETCHES:    1831488 LATE PREFETCHES: 178306 DROPPED PREFETCHES: 4868
L1I AVERAGE MISS LATENCY: 6.16088e+06 cycles
L1I RQ	ACCESS:   14100756	FORWARD:          0	MERGED:    4300067	TO_CACHE:    9800689
L1I PQ	ACCESS:    8945740	FORWARD:          0	MERGED:     517206	TO_CACHE:    8428534

BTB TOTAL     ACCESS:    5496550  HIT:    5258232  MISS:     238318  HIT %:    95.6642  MISS %:    4.33577   MPKI: 4.76636
BTB BRANCH_DIRECT_JUMP	ACCESS:     462381  HIT:     460595  MISS:       1786
BTB BRANCH_INDIRECT	ACCESS:      45460  HIT:      45289  MISS:        171
BTB BRANCH_CONDITIONAL	ACCESS:    3246768  HIT:    3240947  MISS:       5821
BTB BRANCH_DIRECT_CALL	ACCESS:     666240  HIT:     662429  MISS:       3811
BTB BRANCH_INDIRECT_CALL	ACCESS:     204728  HIT:     179061  MISS:      25667
BTB BRANCH_RETURN	ACCESS:     870973  HIT:     669911  MISS:     201062
BTB BRANCH_OTHER ACCESS:          0  HIT:          0  MISS:          0

L2C TOTAL     ACCESS:    8041801  HIT:    5728661  MISS:    2313140  HIT %:     71.236  MISS %:     28.764   MPKI: 46.2628
L2C LOAD      ACCESS:    1008876  HIT:     653744  MISS:     355132  HIT %:    64.7992  MISS %:    35.2008   MPKI: 7.10264
L2C DATA LOAD MPKI: 6.81874
L2C INSTRUCTION LOAD MPKI: 0.2839
L2C RFO       ACCESS:     916474  HIT:      33766  MISS:     882708  HIT %:    3.68434  MISS %:    96.3157   MPKI: 17.6542
L2C PREFETCH  ACCESS:    4856319  HIT:    3880830  MISS:     975489  HIT %:     79.913  MISS %:     20.087   MPKI: 19.5098
L2C DATA PREFETCH MPKI: 17.0064
L2C INSTRUCTION PREFETCH MPKI: 2.50338
L2C WRITEBACK ACCESS:    1161896  HIT:    1093789  MISS:      68107  HIT %:    94.1383  MISS %:    5.86171   MPKI: 1.36214
L2C LOAD TRANSLATION ACCESS:      91274  HIT:      60488  MISS:      30786  HIT %:    66.2708  MISS %:    33.7292   MPKI: 0.61572
L2C TRANSLATION FROM L1D PREFETCHER ACCESS:       6962  HIT:       6044  MISS:        918  HIT %:    86.8141  MISS %:    13.1859   MPKI: 0.01836
L2C PREFETCH  REQUESTED:    3990840  ISSUED:    3987620  USEFUL:     378429  USELESS:     595630
L2C USEFUL LOAD PREFETCHES:     378429 PREFETCH ISSUED TO LOWER LEVEL:    1129495  ACCURACY: 33.5043
L2C TIMELY PREFETCHES:     378429 LATE PREFETCHES: 42525 DROPPED PREFETCHES: 0
L2C AVERAGE MISS LATENCY: 170.844 cycles
L2C RQ	ACCESS:    2023601	FORWARD:          0	MERGED:          0	TO_CACHE:    2023586
L2C WQ	ACCESS:    1161896	FORWARD:         15	MERGED:          0	TO_CACHE:    1161896
L2C PQ	ACCESS:    6064860	FORWARD:          0	MERGED:     990290	TO_CACHE:    5074570

L2C Instructions Evicting Data127946
L2C Translations Evicting Data29376
L2C Data Evicting Data1922308
L2C Instructions Evicting Instructions9596
L2C Translations Evicting Instructions1908
L2C Data Evicting Instructions122956
L2C Instructions Evicting Translations1822
L2C Translations Evicting Translations420
L2C Data Evicting Translations28701
L2C Dense regions hint from L2: 0
PSCL5 TOTAL     ACCESS:      70865  HIT:      70865  MISS:          0  HIT %:        100  MISS %:          0   MPKI: 0
PSCL5 LOAD TRANSLATION ACCESS:      65105  HIT:      65105  MISS:          0  HIT %:        100  MISS %:          0   MPKI: 0
PSCL5 TRANSLATION FROM L1D PREFETCHER ACCESS:       5760  HIT:       5760  MISS:          0  HIT %:        100  MISS %:          0   MPKI: 0

PSCL4 TOTAL     ACCESS:      69708  HIT:      69591  MISS:        117  HIT %:    99.8322  MISS %:   0.167843   MPKI: 0.00234
PSCL4 LOAD TRANSLATION ACCESS:      64364  HIT:      64247  MISS:        117  HIT %:    99.8182  MISS %:   0.181779   MPKI: 0.00234
PSCL4 TRANSLATION FROM L1D PREFETCHER ACCESS:       5344  HIT:       5344  MISS:          0  HIT %:        100  MISS %:          0   MPKI: 0

PSCL3 TOTAL     ACCESS:      69777  HIT:      69284  MISS:        493  HIT %:    99.2935  MISS %:   0.706537   MPKI: 0.00986
PSCL3 LOAD TRANSLATION ACCESS:      64783  HIT:      64290  MISS:        493  HIT %:     99.239  MISS %:   0.761002   MPKI: 0.00986
PSCL3 TRANSLATION FROM L1D PREFETCHER ACCESS:       4994  HIT:       4994  MISS:          0  HIT %:        100  MISS %:          0   MPKI: 0

PSCL2 TOTAL     ACCESS:      65998  HIT:      40016  MISS:      25982  HIT %:    60.6321  MISS %:    39.3679   MPKI: 0.51964
PSCL2 LOAD TRANSLATION ACCESS:      65387  HIT:      39405  MISS:      25982  HIT %:    60.2643  MISS %:    39.7357   MPKI: 0.51964
PSCL2 TRANSLATION FROM L1D PREFETCHER ACCESS:        611  HIT:        611  MISS:          0  HIT %:        100  MISS %:          0   MPKI: 0

LLC TOTAL     ACCESS:    3467084  HIT:    1623174  MISS:    1843910  HIT %:    46.8167  MISS %:    53.1833   MPKI: 36.8782
LLC LOAD      ACCESS:     313366  HIT:     150663  MISS:     162703  HIT %:    48.0789  MISS %:    51.9211   MPKI: 3.25406
LLC RFO       ACCESS:     881948  HIT:     145933  MISS:     736015  HIT %:    16.5467  MISS %:    83.4533   MPKI: 14.7203
LLC PREFETCH  ACCESS:    1128678  HIT:     557619  MISS:     571059  HIT %:    49.4046  MISS %:    50.5954   MPKI: 11.4212
LLC WRITEBACK ACCESS:    1111388  HIT:     755196  MISS:     356192  HIT %:    67.9507  MISS %:    32.0493   MPKI: 7.12384
LLC LOAD TRANSLATION ACCESS:      30786  HIT:      13431  MISS:      17355  HIT %:     43.627  MISS %:     56.373   MPKI: 0.3471
LLC TRANSLATION FROM L1D PREFETCHER ACCESS:        918  HIT:        332  MISS:        586  HIT %:    36.1656  MISS %:    63.8344   MPKI: 0.01172
LLC AVERAGE MISS LATENCY: 185.938 cycles
LLC RQ	ACCESS:    1227019	FORWARD:          0	MERGED:          0	TO_CACHE:    1227018
LLC WQ	ACCESS:    1111388	FORWARD:          1	MERGED:          0	TO_CACHE:    1111388
LLC PQ	ACCESS:    1129495	FORWARD:          0	MERGED:        237	TO_CACHE:    1129258

LLC Dense regions hint to LLC: 0

RAW hits: 1201667
Loads Generated: 11983954
Loads sent to L1D: 10782287
Stores Generated: 8106894
Stores sent to L1D: 8106892
Major fault: 0 Minor fault: 25901
Allocated PAGES: 25901



Printing Logs
statHeadFound: 1197873
statHeadMissing: 1780678
statStreamBufferHit: 12137646
statPrefetchEntryFound: 6115002
statCompactorMatch: 12359330
statStreamTrackerLookup: 15116197
statRecord: 2756867
statGetPointer: 2978551
statEnqueuePrefetch: 17308072
statPrefetchQueueIsFull: 105
StreamBufferHitRate: 0.802956
Regions' size: 1749
next_region_correct: 2240242
next_region_wrong: 514868
next_region_correct_prediction: 0.813123
statStreamBufferLookups: 151161970
statL1iLookups: 138464576
statCompactorLookups: 241859152
------------------
Depth Distribution
------------------
depth 0: 322096
depth 1: 529535
depth 2: 1934399
depth 3: 2792790
depth 4: 497115
depth 5: 41715
depth 6: 184
depth 7: 205
depth 8: 394
depth 9: 337
depth 10: 9
depth 11: 50
depth 12: 24
depth 13: 4
depth 14: 0
depth 15: 0
depth 16: 0
depth 17: 0
depth 18: 0
depth 19: 0
depth 20: 0
depth 21: 0
depth 22: 0
depth 23: 0
depth 24: 0
depth 25: 0
depth 26: 0
depth 27: 0
depth 28: 0
depth 29: 0
Total: 6118857
------------------
ST read accesses: 1205450647
ST write accesses: 101032544
PT read accesses: 54237592
PT write accesses: 3891100
FILTER read accesses: 16509677
FILTER write accesses: 10832497
GHR read accesses: 5974825
GHR write accesses: 676448
PERC read accesses: 366001812
PERC write accesses: 29142449
GHR counter read accesses: 5844542
GHR counter write accesses: 8918201
GHR ip read accesses: 22294461
GHR ip write accesses: 11689084

DRAM Statistics
 CHANNEL 0
 RQ ROW_BUFFER_HIT:     448207  ROW_BUFFER_MISS:    1039429
 DBUS_CONGESTED:        614
 WQ ROW_BUFFER_HIT:     200050  ROW_BUFFER_MISS:     675673  FULL:       2564

 AVG_CONGESTED_CYCLE: 3

CPU 0 Branch Prediction Accuracy: 99.2186% MPKI: 1.3219 Average ROB Occupancy at Mispredict: 131.741
Branch types
NOT_BRANCH: 41540992 83.082%
BRANCH_DIRECT_JUMP: 462381 0.924762%
BRANCH_INDIRECT: 45460 0.09092%
BRANCH_CONDITIONAL: 6209280 12.4186%
BRANCH_DIRECT_CALL: 666240 1.33248%
BRANCH_INDIRECT_CALL: 204728 0.409456%
BRANCH_RETURN: 870973 1.74195%
BRANCH_OTHER: 0 0%

DRAM PAGES: 1048576
Allocated PAGES: 25901
