
*** ChampSim Multicore Out-of-Order Simulator ***

Warmup Instructions: 50000000
Simulation Instructions: 50000000
Number of CPUs: 1
LLC sets: 2048
LLC ways: 16
Off-chip DRAM Size: 4096 MB Channels: 1 Width: 64-bit Data Rate: 6400 MT/s
CPU 0 runs ../IPC-traces//server_010.champsimtrace.xz
.xz
NUM_OF_IPS_IN_CRITICAL_IP_TRAINING: 64
NUM_OF_CRITICAL_IP_TRAINING_TABLE_WAYS: 2
NUM_OF_CRITICAL_IP_TRAINING_TABLE_SETS: 32
WOBBLY_CRITICAL_IP_CACHE_SETS: 32
WOBBLY_CRITICAL_IP_CACHE_WAYS: 4
BTB has LRU replacement policy
ITLB has LRU replacement policy
DTLB has LRU replacement policy
STLB has LRU replacement policy
CPU 0 L1I next line prefetcher
L1I has LRU replacement policy
IP Table Entries: 64
L1D has LRU replacement policy
Initialize SRRIP state for L2C
Initialize DRRIP state for LLC
Heartbeat CPU 0 instructions: 10000001 cycles: 2765932 heartbeat IPC: 3.61542 cumulative IPC: 3.61542 (Simulation time: 0 hr 3 min 5 sec) 
Heartbeat CPU 0 instructions: 20000003 cycles: 5523707 heartbeat IPC: 3.62611 cumulative IPC: 3.62076 (Simulation time: 0 hr 5 min 37 sec) 
Heartbeat CPU 0 instructions: 30000001 cycles: 8280199 heartbeat IPC: 3.6278 cumulative IPC: 3.6231 (Simulation time: 0 hr 8 min 2 sec) 
Heartbeat CPU 0 instructions: 40000000 cycles: 11037680 heartbeat IPC: 3.6265 cumulative IPC: 3.62395 (Simulation time: 0 hr 10 min 17 sec) 
Heartbeat CPU 0 instructions: 50000003 cycles: 13796456 heartbeat IPC: 3.6248 cumulative IPC: 3.62412 (Simulation time: 0 hr 12 min 22 sec) 

Warmup complete CPU 0 instructions: 50000003 cycles: 13796456 (Simulation time: 0 hr 12 min 22 sec) 

% increase in all ip prefetch 355.464
% increase in all ip prefetch 3.32679
Heartbeat CPU 0 instructions: 60000001 cycles: 27885140 heartbeat IPC: 0.709789 cumulative IPC: 0.709789 (Simulation time: 0 hr 15 min 1 sec) 
Heartbeat CPU 0 instructions: 70000000 cycles: 42039093 heartbeat IPC: 0.706516 cumulative IPC: 0.708149 (Simulation time: 0 hr 17 min 31 sec) 
Heartbeat CPU 0 instructions: 80000003 cycles: 56215191 heartbeat IPC: 0.705413 cumulative IPC: 0.707235 (Simulation time: 0 hr 20 min 0 sec) 
Heartbeat CPU 0 instructions: 90000002 cycles: 70163482 heartbeat IPC: 0.716934 cumulative IPC: 0.709635 (Simulation time: 0 hr 22 min 31 sec) 
Heartbeat CPU 0 instructions: 100000000 cycles: 96660752 heartbeat IPC: 0.377397 cumulative IPC: 0.603396 (Simulation time: 0 hr 26 min 52 sec) 
Finished CPU 0 instructions: 50000001 cycles: 82864317 cumulative IPC: 0.603396 (Simulation time: 0 hr 26 min 52 sec) 

ChampSim completed all CPUs

Region of Interest Statistics

CPU 0 cumulative IPC: 0.603396 instructions: 50000001 cycles: 82864317

CPU 0 Average Load ROB stall cycles: 2.75436e+07
CPU 0 Fraction of times ROB stalled by Loads: 47.077
CPU 0 Percentage of Load stall cycles in Total stall cycles: 2.84753e+08
Issued all: 33234027
Issued LT all: 27441042
rob_not_full_when_issued_lt_all: 20961700
Issued LT one: 22198847
rob_not_full_when_issued_lt_one: 16183616
critical_ip_candidate_identification_operations: 6756276
critical_ip_candidate_identification_operation_per_cycle: 0.0815342
 Total stall cycles: 69409774
 Total load stall cycles: 197646680753739
Unique Load IPs: 31458
CPU 0 NUM of IPS identified critical: 37
CPU 0 Num of Load IPs stalling ROB: 23877
Threshold modification factor: -1
Max PIST entries: 64
Min PIST entries: 0
Avg PIST entries: 31.68
Trouble in retire width: 0.924017
MaC = Marked as critical.
lt_50_percent_before_Mac: 30
gt_90_percent_before_Mac: 1
gt_75_percent_before_Mac: 1
gt_50_percent_before_Mac: 5
stall_proportion_bin_same_before_after: 0
stall_proportion_bin_lower_before_after: 0
stall_proportion_bin_upper_before_after: 0
average_stall_proportion_before: 0.0509057
average_stall_proportion_after: 0.0575169
Critical IP stalls, total frequency: 1113339
Non-critical IP stalls, total frequency: 2264799
Total Freq all stalling IPs: 3378138
Critical_IP_Detector_Accuracy_70: 0.72973
Critical_IP_Detector_Accuracy_80: 0.810811
Critical_IP_Detector_Accuracy_90: 1
Critical_IP_Detector_Coverage_70: 0.0586957
Critical_IP_Detector_Coverage_80: 0.0255537
Critical_IP_Detector_Coverage_90: 0.0099865
stat_90_percent_critical_ip_stalls_freq: 3040381
stat_90_percent_non_critical_ip_stalls_freq: 337757
AVERAGE_ROB_Occupancy_90_Percent_Critical_IP_Stalls: 131.616
AVERAGE_ROB_Occupancy_90_Percent_Non_Critical_IP_Stalls: 64.0124
Critical_IP_ROB_Stalls_Bucket_0: 39877
Non-critical_IP_ROB_Stalls_Bucket_0: 1158706
Critical_IP_ROB_Stalls_Bucket_1: 94884
Non-critical_IP_ROB_Stalls_Bucket_1: 681289
Critical_IP_ROB_Stalls_Bucket_2: 126696
Non-critical_IP_ROB_Stalls_Bucket_2: 242716
Critical_IP_ROB_Stalls_Bucket_3: 132670
Non-critical_IP_ROB_Stalls_Bucket_3: 80116
Critical_IP_ROB_Stalls_Bucket_4: 131284
Non-critical_IP_ROB_Stalls_Bucket_4: 43501
Critical_IP_ROB_Stalls_Bucket_5: 138781
Non-critical_IP_ROB_Stalls_Bucket_5: 24787
Critical_IP_ROB_Stalls_Bucket_6: 449147
Non-critical_IP_ROB_Stalls_Bucket_6: 33684
0 => IPs accounting for >50 percent of stalls, 1 => 55, 2 => 60, 3 => 65 and so on till 90.
percent50: 50.1126 num IPs:  71
percent55: 55.0615 num IPs: 102
percent60: 60.0601 num IPs: 154
percent65: 65.0162 num IPs: 265
percent70: 70.0166 num IPs: 460
percent75: 75.0043 num IPs: 729
percent80: 80.0007 num IPs: 1174
percent85: 85.0037 num IPs: 2039
percent90: 90.0018 num IPs: 3705
Critical_ROB_Stalls_Percent_0_Bucket_0: 397941
Non-critical_ROB_Stalls_Percent_0_Bucket_0: 800642
Critical_ROB_Stalls_Percent_0_Bucket_1: 273601
Non-critical_ROB_Stalls_Percent_0_Bucket_1: 502572
Critical_ROB_Stalls_Percent_0_Bucket_2: 180479
Non-critical_ROB_Stalls_Percent_0_Bucket_2: 188933
Critical_ROB_Stalls_Percent_0_Bucket_3: 135965
Non-critical_ROB_Stalls_Percent_0_Bucket_3: 76821
Critical_ROB_Stalls_Percent_0_Bucket_4: 130119
Non-critical_ROB_Stalls_Percent_0_Bucket_4: 44666
Critical_ROB_Stalls_Percent_0_Bucket_5: 134947
Non-critical_ROB_Stalls_Percent_0_Bucket_5: 28621
Critical_ROB_Stalls_Percent_0_Bucket_6: 439822
Non-critical_ROB_Stalls_Percent_0_Bucket_6: 43009
Critical_ROB_Stalls_Percent_1_Bucket_0: 448367
Non-critical_ROB_Stalls_Percent_1_Bucket_0: 750216
Critical_ROB_Stalls_Percent_1_Bucket_1: 354236
Non-critical_ROB_Stalls_Percent_1_Bucket_1: 421937
Critical_ROB_Stalls_Percent_1_Bucket_2: 204217
Non-critical_ROB_Stalls_Percent_1_Bucket_2: 165195
Critical_ROB_Stalls_Percent_1_Bucket_3: 138981
Non-critical_ROB_Stalls_Percent_1_Bucket_3: 73805
Critical_ROB_Stalls_Percent_1_Bucket_4: 133131
Non-critical_ROB_Stalls_Percent_1_Bucket_4: 41654
Critical_ROB_Stalls_Percent_1_Bucket_5: 138877
Non-critical_ROB_Stalls_Percent_1_Bucket_5: 24691
Critical_ROB_Stalls_Percent_1_Bucket_6: 442243
Non-critical_ROB_Stalls_Percent_1_Bucket_6: 40588
Critical_ROB_Stalls_Percent_2_Bucket_0: 503242
Non-critical_ROB_Stalls_Percent_2_Bucket_0: 695341
Critical_ROB_Stalls_Percent_2_Bucket_1: 417165
Non-critical_ROB_Stalls_Percent_2_Bucket_1: 359008
Critical_ROB_Stalls_Percent_2_Bucket_2: 227882
Non-critical_ROB_Stalls_Percent_2_Bucket_2: 141530
Critical_ROB_Stalls_Percent_2_Bucket_3: 149237
Non-critical_ROB_Stalls_Percent_2_Bucket_3: 63549
Critical_ROB_Stalls_Percent_2_Bucket_4: 138278
Non-critical_ROB_Stalls_Percent_2_Bucket_4: 36507
Critical_ROB_Stalls_Percent_2_Bucket_5: 141502
Non-critical_ROB_Stalls_Percent_2_Bucket_5: 22066
Critical_ROB_Stalls_Percent_2_Bucket_6: 451606
Non-critical_ROB_Stalls_Percent_2_Bucket_6: 31225
Critical_ROB_Stalls_Percent_3_Bucket_0: 573927
Non-critical_ROB_Stalls_Percent_3_Bucket_0: 624656
Critical_ROB_Stalls_Percent_3_Bucket_1: 470247
Non-critical_ROB_Stalls_Percent_3_Bucket_1: 305926
Critical_ROB_Stalls_Percent_3_Bucket_2: 250619
Non-critical_ROB_Stalls_Percent_3_Bucket_2: 118793
Critical_ROB_Stalls_Percent_3_Bucket_3: 157769
Non-critical_ROB_Stalls_Percent_3_Bucket_3: 55017
Critical_ROB_Stalls_Percent_3_Bucket_4: 142913
Non-critical_ROB_Stalls_Percent_3_Bucket_4: 31872
Critical_ROB_Stalls_Percent_3_Bucket_5: 144906
Non-critical_ROB_Stalls_Percent_3_Bucket_5: 18662
Critical_ROB_Stalls_Percent_3_Bucket_6: 455956
Non-critical_ROB_Stalls_Percent_3_Bucket_6: 26875
Critical_ROB_Stalls_Percent_4_Bucket_0: 640437
Non-critical_ROB_Stalls_Percent_4_Bucket_0: 558146
Critical_ROB_Stalls_Percent_4_Bucket_1: 524127
Non-critical_ROB_Stalls_Percent_4_Bucket_1: 252046
Critical_ROB_Stalls_Percent_4_Bucket_2: 273665
Non-critical_ROB_Stalls_Percent_4_Bucket_2: 95747
Critical_ROB_Stalls_Percent_4_Bucket_3: 167205
Non-critical_ROB_Stalls_Percent_4_Bucket_3: 45581
Critical_ROB_Stalls_Percent_4_Bucket_4: 148956
Non-critical_ROB_Stalls_Percent_4_Bucket_4: 25829
Critical_ROB_Stalls_Percent_4_Bucket_5: 149034
Non-critical_ROB_Stalls_Percent_4_Bucket_5: 14534
Critical_ROB_Stalls_Percent_4_Bucket_6: 461835
Non-critical_ROB_Stalls_Percent_4_Bucket_6: 20996
Critical_ROB_Stalls_Percent_5_Bucket_0: 716128
Non-critical_ROB_Stalls_Percent_5_Bucket_0: 482455
Critical_ROB_Stalls_Percent_5_Bucket_1: 585653
Non-critical_ROB_Stalls_Percent_5_Bucket_1: 190520
Critical_ROB_Stalls_Percent_5_Bucket_2: 289529
Non-critical_ROB_Stalls_Percent_5_Bucket_2: 79883
Critical_ROB_Stalls_Percent_5_Bucket_3: 173192
Non-critical_ROB_Stalls_Percent_5_Bucket_3: 39594
Critical_ROB_Stalls_Percent_5_Bucket_4: 153020
Non-critical_ROB_Stalls_Percent_5_Bucket_4: 21765
Critical_ROB_Stalls_Percent_5_Bucket_5: 151859
Non-critical_ROB_Stalls_Percent_5_Bucket_5: 11709
Critical_ROB_Stalls_Percent_5_Bucket_6: 464369
Non-critical_ROB_Stalls_Percent_5_Bucket_6: 18462
Critical_ROB_Stalls_Percent_6_Bucket_0: 812446
Non-critical_ROB_Stalls_Percent_6_Bucket_0: 386137
Critical_ROB_Stalls_Percent_6_Bucket_1: 629857
Non-critical_ROB_Stalls_Percent_6_Bucket_1: 146316
Critical_ROB_Stalls_Percent_6_Bucket_2: 303775
Non-critical_ROB_Stalls_Percent_6_Bucket_2: 65637
Critical_ROB_Stalls_Percent_6_Bucket_3: 179510
Non-critical_ROB_Stalls_Percent_6_Bucket_3: 33276
Critical_ROB_Stalls_Percent_6_Bucket_4: 156207
Non-critical_ROB_Stalls_Percent_6_Bucket_4: 18578
Critical_ROB_Stalls_Percent_6_Bucket_5: 154014
Non-critical_ROB_Stalls_Percent_6_Bucket_5: 9554
Critical_ROB_Stalls_Percent_6_Bucket_6: 466726
Non-critical_ROB_Stalls_Percent_6_Bucket_6: 16105
Critical_ROB_Stalls_Percent_7_Bucket_0: 899555
Non-critical_ROB_Stalls_Percent_7_Bucket_0: 299028
Critical_ROB_Stalls_Percent_7_Bucket_1: 673580
Non-critical_ROB_Stalls_Percent_7_Bucket_1: 102593
Critical_ROB_Stalls_Percent_7_Bucket_2: 322346
Non-critical_ROB_Stalls_Percent_7_Bucket_2: 47066
Critical_ROB_Stalls_Percent_7_Bucket_3: 188236
Non-critical_ROB_Stalls_Percent_7_Bucket_3: 24550
Critical_ROB_Stalls_Percent_7_Bucket_4: 161116
Non-critical_ROB_Stalls_Percent_7_Bucket_4: 13669
Critical_ROB_Stalls_Percent_7_Bucket_5: 156892
Non-critical_ROB_Stalls_Percent_7_Bucket_5: 6676
Critical_ROB_Stalls_Percent_7_Bucket_6: 469817
Non-critical_ROB_Stalls_Percent_7_Bucket_6: 13014
Critical_ROB_Stalls_Percent_8_Bucket_0: 993655
Non-critical_ROB_Stalls_Percent_8_Bucket_0: 204928
Critical_ROB_Stalls_Percent_8_Bucket_1: 712004
Non-critical_ROB_Stalls_Percent_8_Bucket_1: 64169
Critical_ROB_Stalls_Percent_8_Bucket_2: 338263
Non-critical_ROB_Stalls_Percent_8_Bucket_2: 31149
Critical_ROB_Stalls_Percent_8_Bucket_3: 196029
Non-critical_ROB_Stalls_Percent_8_Bucket_3: 16757
Critical_ROB_Stalls_Percent_8_Bucket_4: 166497
Non-critical_ROB_Stalls_Percent_8_Bucket_4: 8288
Critical_ROB_Stalls_Percent_8_Bucket_5: 159214
Non-critical_ROB_Stalls_Percent_8_Bucket_5: 4354
Critical_ROB_Stalls_Percent_8_Bucket_6: 474719
Non-critical_ROB_Stalls_Percent_8_Bucket_6: 8112
Average ROB occupancy Load Stall Begin: 115.639
Average ROB occupancy Load Stall End: 124.857
Min ROB occupancy Load Stall Begin: 1
Max ROB occupancy Load Stall Begin: 352
Min ROB occupancy Load Stall End: 1
Max ROB occupancy Load Stall End: 352
Average ROB occupancy Critical Load Stall Begin: 246.026
Average ROB occupancy Critical Load Stall End: 249.197
Min ROB occupancy Critical Load Stall Begin: 3
Max ROB occupancy Critical Load Stall Begin: 352
Min ROB occupancy Critical Load Stall End: 3
Max ROB occupancy Critical Load Stall End: 352
 ROB Load Stall Begin Bucket Count 0: 1486205
 ROB Load Stall End Bucket Count 0: 1198583
 ROB Critical Load Stall Begin Bucket Count 0: 43941
 ROB Critical Load Stall End Bucket Count 0: 24523
 ROB Load Stall Begin Bucket Count 1: 603418
 ROB Load Stall End Bucket Count 1: 776173
 ROB Critical Load Stall Begin Bucket Count 1: 68882
 ROB Critical Load Stall End Bucket Count 1: 76349
 ROB Load Stall Begin Bucket Count 2: 308666
 ROB Load Stall End Bucket Count 2: 369412
 ROB Critical Load Stall Begin Bucket Count 2: 119636
 ROB Critical Load Stall End Bucket Count 2: 120038
 ROB Load Stall Begin Bucket Count 3: 187564
 ROB Load Stall End Bucket Count 3: 212786
 ROB Critical Load Stall Begin Bucket Count 3: 128943
 ROB Critical Load Stall End Bucket Count 3: 132040
 ROB Load Stall Begin Bucket Count 4: 166903
 ROB Load Stall End Bucket Count 4: 174785
 ROB Critical Load Stall Begin Bucket Count 4: 132238
 ROB Critical Load Stall End Bucket Count 4: 131095
 ROB Load Stall Begin Bucket Count 5: 157755
 ROB Load Stall End Bucket Count 5: 163568
 ROB Critical Load Stall Begin Bucket Count 5: 136949
 ROB Critical Load Stall End Bucket Count 5: 138614
 ROB Load Stall Begin Bucket Count 6: 467627
 ROB Load Stall End Bucket Count 6: 482831
 ROB Critical Load Stall Begin Bucket Count 6: 439985
 ROB Critical Load Stall End Bucket Count 6: 447915
PIST Tag Read Accesses: 2782210
PIST Read Accesses: 1391105
PIST Tag Write Accesses: 2782210
PIST Write Accesses: 1391105
Criticality detector called times: 2307564
Max global_stall_cycles_count: 3087763
Threshold Modified: 1 times, factor: -1
Sturdy critical IP cache stats: 
 Unused entries: 0
CIC Tag Read Accesses: 0
CIC Read Accesses: 0
CIC Tag Write Accesses: 0
CIC Write Accesses: 0
Wobbly critical IP cache stats: 
 Unused entries: 91
CIC Tag Read Accesses: 80332666
CIC Read Accesses: 0
CIC Tag Write Accesses: 124509
CIC Write Accesses: 0
ITLB TOTAL     ACCESS:    9491152  HIT:    9275640  MISS:     215512  HIT %:    97.7293  MISS %:    2.27066   MPKI: 4.31024
ITLB LOAD TRANSLATION ACCESS:    8368876  HIT:    8307411  MISS:      61465  HIT %:    99.2656  MISS %:   0.734447   MPKI: 1.2293
ITLB TRANSLATION FROM L1D PREFETCHER ACCESS:    1122276  HIT:     968229  MISS:     154047  HIT %:    86.2737  MISS %:    13.7263   MPKI: 3.08094
ITLBprefetch_cycle_count: 0 prefetches_per_prefetch_cycle: -nan
ITLB PREFETCH  REQUESTED:          0  ISSUED:          0  USEFUL:     126096  USELESS:      27949
ITLB USEFUL LOAD PREFETCHES:     126096 PREFETCH ISSUED TO LOWER LEVEL:          0  ACCURACY: inf
ITLB TIMELY PREFETCHES:     126096 LATE PREFETCHES: 733 DROPPED PREFETCHES: 13192
ITLB PREFETCHES SAME FILL-ORIGIN LEVEL: 0 DIFFERENT FILL-ORIGIN LEVEL: 0
ITLB AVERAGE MISS LATENCY: 159682 cycles
ITLB RQ	ACCESS:   12891062	FORWARD:          0	MERGED:    3357259	TO_CACHE:    9533803

DTLB TOTAL     ACCESS:   10006977  HIT:    8691989  MISS:    1314988  HIT %:    86.8593  MISS %:    13.1407   MPKI: 26.2998
DTLB LOAD TRANSLATION ACCESS:   10006977  HIT:    8691989  MISS:    1314988  HIT %:    86.8593  MISS %:    13.1407   MPKI: 26.2998
DTLBprefetch_cycle_count: 0 prefetches_per_prefetch_cycle: -nan
DTLB PREFETCH  REQUESTED:          0  ISSUED:          0  USEFUL:          0  USELESS:          0
DTLB USEFUL LOAD PREFETCHES:          0 PREFETCH ISSUED TO LOWER LEVEL:          0  ACCURACY: -nan
DTLB TIMELY PREFETCHES:          0 LATE PREFETCHES: 0 DROPPED PREFETCHES: 0
DTLB PREFETCHES SAME FILL-ORIGIN LEVEL: 0 DIFFERENT FILL-ORIGIN LEVEL: 0
DTLB AVERAGE MISS LATENCY: 11.7349 cycles
DTLB RQ	ACCESS:   13005500	FORWARD:          0	MERGED:    2960305	TO_CACHE:   10045195

STLB TOTAL     ACCESS:    2343201  HIT:    2235726  MISS:     107475  HIT %:    95.4133  MISS %:    4.58667   MPKI: 2.1495
STLB LOAD TRANSLATION ACCESS:    1375720  HIT:    1293291  MISS:      82429  HIT %:    94.0083  MISS %:     5.9917   MPKI: 1.64858
STLB TRANSLATION FROM L1D PREFETCHER ACCESS:     967481  HIT:     942435  MISS:      25046  HIT %:    97.4112  MISS %:    2.58878   MPKI: 0.50092
STLBprefetch_cycle_count: 0 prefetches_per_prefetch_cycle: -nan
STLB PREFETCH  REQUESTED:          0  ISSUED:          0  USEFUL:      14404  USELESS:      10625
STLB USEFUL LOAD PREFETCHES:      14404 PREFETCH ISSUED TO LOWER LEVEL:          0  ACCURACY: inf
STLB TIMELY PREFETCHES:      14404 LATE PREFETCHES: 10 DROPPED PREFETCHES: 13192
STLB PREFETCHES SAME FILL-ORIGIN LEVEL: 0 DIFFERENT FILL-ORIGIN LEVEL: 0
STLB AVERAGE MISS LATENCY: 47.7823 cycles
STLB RQ	ACCESS:    2554668	FORWARD:          0	MERGED:     198266	TO_CACHE:    2356402

STLB Hit, L1D data hit: 0
STLB Hit, L2C data hit: 0
STLB Hit, LLC data hit: 0
STLB Hit, LLC data miss: 0
STLB STLB hints to L2: 0
L1D TOTAL     ACCESS:   13864775  HIT:   11916405  MISS:    1948370  HIT %:    85.9473  MISS %:    14.0527   MPKI: 38.9674
L1D LOAD      ACCESS:    8111032  HIT:    6642866  MISS:    1468166  HIT %:    81.8991  MISS %:    18.1009   MPKI: 29.3633
L1D RFO       ACCESS:    4744841  HIT:    4652065  MISS:      92776  HIT %:    98.0447  MISS %:     1.9553   MPKI: 1.85552
L1D PREFETCH  ACCESS:    1008902  HIT:     621474  MISS:     387428  HIT %:     61.599  MISS %:     38.401   MPKI: 7.74856
L1Dprefetch_cycle_count: 882214 prefetches_per_prefetch_cycle: 2.29191
L1D PREFETCH  REQUESTED:    2021967  ISSUED:    2021954  USEFUL:     101408  USELESS:     285801
L1D USEFUL LOAD PREFETCHES:     101408 PREFETCH ISSUED TO LOWER LEVEL:     387905  ACCURACY: 26.1425
L1D TIMELY PREFETCHES:     101408 LATE PREFETCHES: 477 DROPPED PREFETCHES: 0
L1D PREFETCHES SAME FILL-ORIGIN LEVEL: 387905 DIFFERENT FILL-ORIGIN LEVEL: 0
L1D AVERAGE MISS LATENCY: 11469.4 cycles
L1D RQ	ACCESS:   11601153	FORWARD:          0	MERGED:    3373489	TO_CACHE:    8147520
L1D WQ	ACCESS:    4965307	FORWARD:      80144	MERGED:     107327	TO_CACHE:    4857980
L1D PQ	ACCESS:    1010977	FORWARD:          0	MERGED:          0	TO_CACHE:    1010977

L1D UNIQUE REGIONS ACCESSED: 0
L1D REGIONS CONFLICTS: 0
L1D Cross Page Prefetch Requests: 0
L1D Same Page Prefetch Requests: 1014089
L1D ROI Sum of L1D PQ occupancy: 13043435
L1D PREFETCHES PUSHED FROM L2C: 0
L1I TOTAL     ACCESS:   12725706  HIT:   10911061  MISS:    1814645  HIT %:    85.7403  MISS %:    14.2597   MPKI: 36.2929
L1I LOAD      ACCESS:   10113161  HIT:    9888613  MISS:     224548  HIT %:    97.7796  MISS %:    2.22035   MPKI: 4.49096
L1I PREFETCH  ACCESS:    2612545  HIT:    1022448  MISS:    1590097  HIT %:    39.1361  MISS %:    60.8639   MPKI: 31.8019
L1Iprefetch_cycle_count: 0 prefetches_per_prefetch_cycle: inf
L1I PREFETCH  REQUESTED:    2850234  ISSUED:    2841215  USEFUL:    1048742  USELESS:     541330
L1I USEFUL LOAD PREFETCHES:    1048742 PREFETCH ISSUED TO LOWER LEVEL:    1620609  ACCURACY: 64.7128
L1I TIMELY PREFETCHES:    1048742 LATE PREFETCHES: 30506 DROPPED PREFETCHES: 43564
L1I PREFETCHES SAME FILL-ORIGIN LEVEL: 1620609 DIFFERENT FILL-ORIGIN LEVEL: 0
L1I AVERAGE MISS LATENCY: 757131 cycles
L1I RQ	ACCESS:   14583812	FORWARD:          0	MERGED:    4444369	TO_CACHE:   10139443
L1I PQ	ACCESS:    2841215	FORWARD:          0	MERGED:      89596	TO_CACHE:    2751619

BTB TOTAL     ACCESS:    5599983  HIT:    4872064  MISS:     727919  HIT %:    87.0014  MISS %:    12.9986   MPKI: 14.5584
BTB BRANCH_DIRECT_JUMP	ACCESS:     449946  HIT:     393873  MISS:      56073
BTB BRANCH_INDIRECT	ACCESS:     140210  HIT:     110632  MISS:      29578
BTB BRANCH_CONDITIONAL	ACCESS:    3238718  HIT:    3009563  MISS:     229155
BTB BRANCH_DIRECT_CALL	ACCESS:     701578  HIT:     595974  MISS:     105604
BTB BRANCH_INDIRECT_CALL	ACCESS:     168971  HIT:     157981  MISS:      10990
BTB BRANCH_RETURN	ACCESS:     900560  HIT:     604041  MISS:     296519
BTB BRANCH_OTHER ACCESS:          0  HIT:          0  MISS:          0

L2C TOTAL     ACCESS:    4594264  HIT:    3400718  MISS:    1193546  HIT %:     74.021  MISS %:     25.979   MPKI: 23.8709
L2C LOAD      ACCESS:    1661707  HIT:    1288897  MISS:     372810  HIT %:    77.5646  MISS %:    22.4354   MPKI: 7.4562
L2C DATA LOAD MPKI: 5.9361
L2C INSTRUCTION LOAD MPKI: 1.5201
L2C RFO       ACCESS:      92776  HIT:      44902  MISS:      47874  HIT %:    48.3983  MISS %:    51.6017   MPKI: 0.95748
L2C PREFETCH  ACCESS:    2439628  HIT:    1751808  MISS:     687820  HIT %:    71.8064  MISS %:    28.1936   MPKI: 13.7564
L2C DATA PREFETCH MPKI: 2.69906
L2C INSTRUCTION PREFETCH MPKI: 11.0573
L2C WRITEBACK ACCESS:     239518  HIT:     214249  MISS:      25269  HIT %:    89.4501  MISS %:    10.5499   MPKI: 0.50538
L2C LOAD TRANSLATION ACCESS:     108854  HIT:      59962  MISS:      48892  HIT %:    55.0848  MISS %:    44.9152   MPKI: 0.97784
L2C TRANSLATION FROM L1D PREFETCHER ACCESS:      51781  HIT:      40900  MISS:      10881  HIT %:    78.9865  MISS %:    21.0135   MPKI: 0.21762
L2Cprefetch_cycle_count: 1302087 prefetches_per_prefetch_cycle: 1.00008
L2C PREFETCH  REQUESTED:    1302199  ISSUED:    1302195  USEFUL:      28488  USELESS:     671136
L2C USEFUL LOAD PREFETCHES:      28488 PREFETCH ISSUED TO LOWER LEVEL:     688555  ACCURACY: 4.13736
L2C TIMELY PREFETCHES:      28488 LATE PREFETCHES: 735 DROPPED PREFETCHES: 0
L2C PREFETCHES SAME FILL-ORIGIN LEVEL: 155976 DIFFERENT FILL-ORIGIN LEVEL: 0
L2C AVERAGE MISS LATENCY: 38.6215 cycles
L2C RQ	ACCESS:    1915142	FORWARD:          0	MERGED:          0	TO_CACHE:    1915118
L2C WQ	ACCESS:     239518	FORWARD:         24	MERGED:          0	TO_CACHE:     239518
L2C PQ	ACCESS:    3310703	FORWARD:          0	MERGED:     843084	TO_CACHE:    2467619

L2C Instructions Evicting Data 265014
L2C Translations Evicting Data 25450
L2C Data Evicting Data 202725
L2C Instructions Evicting Instructions 332595
L2C Translations Evicting Instructions 31381
L2C Data Evicting Instructions 252381
L2C Instructions Evicting Translations 31263
L2C Translations Evicting Translations 2942
L2C Data Evicting Translations 24526
L2C Dense regions hint from L2: 0
PSCL5 TOTAL     ACCESS:     120666  HIT:     120666  MISS:          0  HIT %:        100  MISS %:          0   MPKI: 0
PSCL5 LOAD TRANSLATION ACCESS:      82418  HIT:      82418  MISS:          0  HIT %:        100  MISS %:          0   MPKI: 0
PSCL5 TRANSLATION FROM L1D PREFETCHER ACCESS:      38248  HIT:      38248  MISS:          0  HIT %:        100  MISS %:          0   MPKI: 0
PSCL5prefetch_cycle_count: 0 prefetches_per_prefetch_cycle: -nan
PSCL5 PREFETCH  REQUESTED:          0  ISSUED:          0  USEFUL:          0  USELESS:          0
PSCL5 USEFUL LOAD PREFETCHES:          0 PREFETCH ISSUED TO LOWER LEVEL:          0  ACCURACY: -nan
PSCL5 TIMELY PREFETCHES:          0 LATE PREFETCHES: 0 DROPPED PREFETCHES: 0
PSCL5 PREFETCHES SAME FILL-ORIGIN LEVEL: 0 DIFFERENT FILL-ORIGIN LEVEL: 0

PSCL4 TOTAL     ACCESS:     109414  HIT:     109127  MISS:        287  HIT %:    99.7377  MISS %:   0.262306   MPKI: 0.00574
PSCL4 LOAD TRANSLATION ACCESS:      73753  HIT:      73466  MISS:        287  HIT %:    99.6109  MISS %:   0.389137   MPKI: 0.00574
PSCL4 TRANSLATION FROM L1D PREFETCHER ACCESS:      35661  HIT:      35661  MISS:          0  HIT %:        100  MISS %:          0   MPKI: 0
PSCL4prefetch_cycle_count: 0 prefetches_per_prefetch_cycle: -nan
PSCL4 PREFETCH  REQUESTED:          0  ISSUED:          0  USEFUL:          0  USELESS:          0
PSCL4 USEFUL LOAD PREFETCHES:          0 PREFETCH ISSUED TO LOWER LEVEL:          0  ACCURACY: -nan
PSCL4 TIMELY PREFETCHES:          0 LATE PREFETCHES: 0 DROPPED PREFETCHES: 0
PSCL4 PREFETCHES SAME FILL-ORIGIN LEVEL: 0 DIFFERENT FILL-ORIGIN LEVEL: 0

PSCL3 TOTAL     ACCESS:     118506  HIT:     117661  MISS:        845  HIT %:     99.287  MISS %:   0.713044   MPKI: 0.0169
PSCL3 LOAD TRANSLATION ACCESS:      81874  HIT:      81029  MISS:        845  HIT %:    98.9679  MISS %:    1.03207   MPKI: 0.0169
PSCL3 TRANSLATION FROM L1D PREFETCHER ACCESS:      36632  HIT:      36632  MISS:          0  HIT %:        100  MISS %:          0   MPKI: 0
PSCL3prefetch_cycle_count: 0 prefetches_per_prefetch_cycle: -nan
PSCL3 PREFETCH  REQUESTED:          0  ISSUED:          0  USEFUL:          0  USELESS:          0
PSCL3 USEFUL LOAD PREFETCHES:          0 PREFETCH ISSUED TO LOWER LEVEL:          0  ACCURACY: -nan
PSCL3 TIMELY PREFETCHES:          0 LATE PREFETCHES: 0 DROPPED PREFETCHES: 0
PSCL3 PREFETCHES SAME FILL-ORIGIN LEVEL: 0 DIFFERENT FILL-ORIGIN LEVEL: 0

PSCL2 TOTAL     ACCESS:     111764  HIT:      82966  MISS:      28798  HIT %:    74.2332  MISS %:    25.7668   MPKI: 0.57596
PSCL2 LOAD TRANSLATION ACCESS:      85696  HIT:      56898  MISS:      28798  HIT %:    66.3952  MISS %:    33.6048   MPKI: 0.57596
PSCL2 TRANSLATION FROM L1D PREFETCHER ACCESS:      26068  HIT:      26068  MISS:          0  HIT %:        100  MISS %:          0   MPKI: 0
PSCL2prefetch_cycle_count: 0 prefetches_per_prefetch_cycle: -nan
PSCL2 PREFETCH  REQUESTED:          0  ISSUED:          0  USEFUL:          0  USELESS:          0
PSCL2 USEFUL LOAD PREFETCHES:          0 PREFETCH ISSUED TO LOWER LEVEL:          0  ACCURACY: -nan
PSCL2 TIMELY PREFETCHES:          0 LATE PREFETCHES: 0 DROPPED PREFETCHES: 0
PSCL2 PREFETCHES SAME FILL-ORIGIN LEVEL: 0 DIFFERENT FILL-ORIGIN LEVEL: 0

LLC TOTAL     ACCESS:    1295551  HIT:    1226470  MISS:      69081  HIT %:    94.6678  MISS %:    5.33217   MPKI: 1.38162
LLC LOAD      ACCESS:     372084  HIT:     325572  MISS:      46512  HIT %:    87.4996  MISS %:    12.5004   MPKI: 0.93024
LLC RFO       ACCESS:      47865  HIT:      36731  MISS:      11134  HIT %:    76.7387  MISS %:    23.2613   MPKI: 0.22268
LLC PREFETCH  ACCESS:     688555  HIT:     678765  MISS:       9790  HIT %:    98.5782  MISS %:    1.42182   MPKI: 0.1958
LLC WRITEBACK ACCESS:     127274  HIT:     126765  MISS:        509  HIT %:    99.6001  MISS %:   0.399925   MPKI: 0.01018
LLC LOAD TRANSLATION ACCESS:      48892  HIT:      47794  MISS:       1098  HIT %:    97.7542  MISS %:    2.24577   MPKI: 0.02196
LLC TRANSLATION FROM L1D PREFETCHER ACCESS:      10881  HIT:      10843  MISS:         38  HIT %:    99.6508  MISS %:   0.349233   MPKI: 0.00076
LLCprefetch_cycle_count: 0 prefetches_per_prefetch_cycle: -nan
LLC PREFETCH  REQUESTED:          0  ISSUED:          0  USEFUL:        764  USELESS:       9503
LLC USEFUL LOAD PREFETCHES:        764 PREFETCH ISSUED TO LOWER LEVEL:       9790  ACCURACY: 7.80388
LLC TIMELY PREFETCHES:        764 LATE PREFETCHES: 0 DROPPED PREFETCHES: 0
LLC PREFETCHES SAME FILL-ORIGIN LEVEL: 0 DIFFERENT FILL-ORIGIN LEVEL: 0
LLC AVERAGE MISS LATENCY: 159.312 cycles
LLC RQ	ACCESS:     479722	FORWARD:          0	MERGED:          0	TO_CACHE:     479722
LLC WQ	ACCESS:     127274	FORWARD:          0	MERGED:          0	TO_CACHE:     127274
LLC PQ	ACCESS:     688555	FORWARD:          0	MERGED:          0	TO_CACHE:     688555

LLC Dense regions hint to LLC: 0

RAW hits: 1007064
Loads Generated: 12608216
Loads sent to L1D: 11601153
Stores Generated: 4965302
Stores sent to L1D: 4965307
Major fault: 0 Minor fault: 5909
Allocated PAGES: 5909
I-Shadow cache 408 bytes
Touched + WorthPF tables 6144 bytes 
MMA filter 174 bytes 
FNL filter 272 bytes 
TOTAL PREFETCHER STORAGE SIZE: 25174 bytes
CPU 0 L1I next line prefetcher final stats

total_pref_operate_instances_l1: 2013086
dynamic_config_counter_instances_1: 1816096
dynamic_config_counter_instances_2: 2383
dynamic_config_counter_instances_3: 3729
dynamic_config_counter_instances_4: 350
dynamic_config_counter_instances_5: 190528
stream: 
stream:times selected: 1289225
stream:pref_filled: 9922
stream:pref_useful: 1087
stream:pref_late: 94
stream:misses: 4057
stream:misses_by_poll: 0

CS: 
CS:times selected: 349718
CS:pref_filled: 11777
CS:pref_useful: 4693
CS:pref_late: 161
CS:misses: 10404
CS:misses_by_poll: 0

CPLX: 
CPLX:times selected: 1153311
CPLX:pref_filled: 351137
CPLX:pref_useful: 95682
CPLX:pref_late: 31
CPLX:misses: 556317
CPLX:misses_by_poll: 0

NL_L1: 
NL:times selected: 265460
NL:pref_filled: 16059
NL:pref_useful: 147
NL:pref_late: 36
NL:misses: 383009
NL:misses_by_poll: 0

total selections: 3057714
total_filled: 387428
total_useful: 101408
total_late: 514
total_polluted: 0
total_misses_after_warmup: 984578
conflicts: 143840
Degree Incremented Times: 46
Degree Decremented Times: 16796

L1 IP Table Write Accesses: 1832065
L1 IP Table Read Accesses: 1688225
L1 RST Write Accesses: 1286818
L1 RST Read Accesses: 2573636
L1 CSPT Write Accesses: 1286818
L1 CSPT Read Accesses: 2439083
L1 RR Filter Tag Write Accesses: 1010990
L1 RR Filter Tag Read Accesses: 34144979
L1 IP Table Tag Write Accesses: 2013086
L1 IP Table Tag Read Accesses: 2013086
L1 RST Tag Write Accesses: 0
L1 RST Tag Read Accesses: 10467463
L1 RR Filter Write Accesses: 0
L1 RR Filter Read Accesses: 1075732
test: 727619
total_pref_operate_instances_l2: 2669856
dynamic_config_counter_instances_l2_1: 2652529
dynamic_config_counter_instances_l2_2: 10950
dynamic_config_counter_instances_l2_3: 6377
dynamic_config_counter_instances_l2_4: 0
dynamic_config_counter_instances_l2_5: 0
L2 IP Table Read Accesses: 4018103
L2 IP Table Write Accesses: 4373707
L2 IP Table Tag Read Accesses: 2669856
L2 IP Table Tag Write Accesses: 2669856

DRAM Statistics
 CHANNEL 0
 RQ ROW_BUFFER_HIT:      10709  ROW_BUFFER_MISS:      57863
 DBUS_CONGESTED:         32
 WQ ROW_BUFFER_HIT:       9326  ROW_BUFFER_MISS:      40976  FULL:          0

 AVG_CONGESTED_CYCLE: 4
 All warmup complete: 2
Channel 0 Bank busy for read cycles: 0
Channel 0 Bank busy for write cycles: 0
Channel 0
Rank 0
0banks busy for read cycles: 71092323
0banks busy for write cycles: 22949
1banks busy for read cycles: 5241140
1banks busy for write cycles: 3100209
2banks busy for read cycles: 1137172
2banks busy for write cycles: 947041
3banks busy for read cycles: 248616
3banks busy for write cycles: 329134
4banks busy for read cycles: 86691
4banks busy for write cycles: 150251
5banks busy for read cycles: 38993
5banks busy for write cycles: 100487
6banks busy for read cycles: 27439
6banks busy for write cycles: 81029
7banks busy for read cycles: 19583
7banks busy for write cycles: 86116
8banks busy for read cycles: 14688
8banks busy for write cycles: 140457

CPU 0 Branch Prediction Accuracy: 99.5528% MPKI: 0.89798 Average ROB Occupancy at Mispredict: 63.4517
Branch types
NOT_BRANCH: 39958770 79.9175%
BRANCH_DIRECT_JUMP: 449946 0.899892%
BRANCH_INDIRECT: 140210 0.28042%
BRANCH_CONDITIONAL: 7679657 15.3593%
BRANCH_DIRECT_CALL: 701578 1.40316%
BRANCH_INDIRECT_CALL: 168971 0.337942%
BRANCH_RETURN: 900560 1.80112%
BRANCH_OTHER: 0 0%

DRAM PAGES: 1048576
Allocated PAGES: 5909
