
*** ChampSim Multicore Out-of-Order Simulator ***

Warmup Instructions: 50000000
Simulation Instructions: 50000000
Number of CPUs: 1
LLC sets: 2048
LLC ways: 16
Off-chip DRAM Size: 4096 MB Channels: 1 Width: 64-bit Data Rate: 6400 MT/s
CPU 0 runs ../IPC-traces//server_024.champsimtrace.xz
.xz
BTB has LRU replacement policy
ITLB has LRU replacement policy
DTLB has LRU replacement policy
STLB has LRU replacement policy
CPU 0 L1I next line prefetcher
L1I has LRU replacement policy
IP Table Entries: 64
L1D has LRU replacement policy
Initialize SRRIP state for L2C
Initialize DRRIP state for LLC
Heartbeat CPU 0 instructions: 10000000 cycles: 2877671 heartbeat IPC: 3.47503 cumulative IPC: 3.47503 (Simulation time: 0 hr 4 min 41 sec) 
Heartbeat CPU 0 instructions: 20000002 cycles: 5749255 heartbeat IPC: 3.4824 cumulative IPC: 3.47871 (Simulation time: 0 hr 8 min 32 sec) 
Heartbeat CPU 0 instructions: 30000002 cycles: 8623942 heartbeat IPC: 3.47864 cumulative IPC: 3.47869 (Simulation time: 0 hr 12 min 22 sec) 
Heartbeat CPU 0 instructions: 40000000 cycles: 11497630 heartbeat IPC: 3.47985 cumulative IPC: 3.47898 (Simulation time: 0 hr 16 min 9 sec) 
Heartbeat CPU 0 instructions: 50000001 cycles: 14368844 heartbeat IPC: 3.48285 cumulative IPC: 3.47975 (Simulation time: 0 hr 19 min 27 sec) 

Warmup complete CPU 0 instructions: 50000001 cycles: 14368844 (Simulation time: 0 hr 19 min 27 sec) 

Heartbeat CPU 0 instructions: 60000003 cycles: 30363427 heartbeat IPC: 0.625212 cumulative IPC: 0.625212 (Simulation time: 0 hr 22 min 46 sec) 
Heartbeat CPU 0 instructions: 70000000 cycles: 46323714 heartbeat IPC: 0.626555 cumulative IPC: 0.625883 (Simulation time: 0 hr 25 min 57 sec) 
*** Reached end of trace for Core: 0 Repeating trace: ../IPC-traces//server_024.champsimtrace.xz
Heartbeat CPU 0 instructions: 80000003 cycles: 62207557 heartbeat IPC: 0.629571 cumulative IPC: 0.627107 (Simulation time: 0 hr 29 min 16 sec) 
Heartbeat CPU 0 instructions: 90000003 cycles: 78191014 heartbeat IPC: 0.625647 cumulative IPC: 0.626741 (Simulation time: 0 hr 32 min 32 sec) 
Heartbeat CPU 0 instructions: 100000002 cycles: 94179693 heartbeat IPC: 0.625443 cumulative IPC: 0.626481 (Simulation time: 0 hr 35 min 49 sec) 
Finished CPU 0 instructions: 50000001 cycles: 79810849 cumulative IPC: 0.626481 (Simulation time: 0 hr 35 min 49 sec) 

ChampSim completed all CPUs

Region of Interest Statistics

CPU 0 cumulative IPC: 0.626481 instructions: 50000001 cycles: 79810849

CPU 0 Average Load ROB stall cycles: 1.98557e+07
CPU 0 Fraction of times ROB stalled by Loads: 36.5757
CPU 0 Percentage of Load stall cycles in Total stall cycles: 2.75094e+08
Issued all: 27914178
Issued LT all: 22081990
rob_not_full_when_issued_lt_all: 21516765
Issued LT one: 17094625
rob_not_full_when_issued_lt_one: 16599191
 Total stall cycles: 66569458
 Total load stall cycles: 183128494386899
Unique Load IPs: 13758
CPU 0 NUM of IPS identified critical: 55
CPU 0 Num of Load IPs stalling ROB: 0
Threshold modification factor: 0
Trouble in retire width: -nan
MaC = Marked as critical.
lt_50_percent_before_Mac: 9
gt_90_percent_before_Mac: 7
gt_75_percent_before_Mac: 10
gt_50_percent_before_Mac: 23
stall_proportion_bin_same_before_after: 0
stall_proportion_bin_lower_before_after: 0
stall_proportion_bin_upper_before_after: 0
average_stall_proportion_before: 0.0438353
average_stall_proportion_after: 0.050967
Critical_IP_Detector_Accuracy_70: 0
Critical_IP_Detector_Accuracy_80: 0
Critical_IP_Detector_Accuracy_90: 0
Critical_IP_Detector_Coverage_70: 0
Critical_IP_Detector_Coverage_80: 0
Critical_IP_Detector_Coverage_90: 0
stat_90_percent_critical_ip_stalls_freq: 102087
stat_90_percent_non_critical_ip_stalls_freq: 18446744073709449529
AVERAGE_ROB_Occupancy_90_Percent_Critical_IP_Stalls: 100.13
AVERAGE_ROB_Occupancy_90_Percent_Non_Critical_IP_Stalls: 8.23952e-12
Critical_IP_ROB_Stalls_Bucket_0: 15350
Non-critical_IP_ROB_Stalls_Bucket_0: 2271276
Critical_IP_ROB_Stalls_Bucket_1: 4435
Non-critical_IP_ROB_Stalls_Bucket_1: 716362
Critical_IP_ROB_Stalls_Bucket_2: 1472
Non-critical_IP_ROB_Stalls_Bucket_2: 246396
Critical_IP_ROB_Stalls_Bucket_3: 649
Non-critical_IP_ROB_Stalls_Bucket_3: 60566
Critical_IP_ROB_Stalls_Bucket_4: 191
Non-critical_IP_ROB_Stalls_Bucket_4: 21586
Critical_IP_ROB_Stalls_Bucket_5: 70
Non-critical_IP_ROB_Stalls_Bucket_5: 10767
Critical_IP_ROB_Stalls_Bucket_6: 170
Non-critical_IP_ROB_Stalls_Bucket_6: 24077
0 => IPs accounting for >50 percent of stalls, 1 => 55, 2 => 60, 3 => 65 and so on till 90.
percent50: inf num IPs:  1
percent55: inf num IPs: 1
percent60: inf num IPs: 1
percent65: inf num IPs: 1
percent70: inf num IPs: 1
percent75: inf num IPs: 1
percent80: inf num IPs: 1
percent85: inf num IPs: 1
percent90: inf num IPs: 1
Critical_ROB_Stalls_Percent_0_Bucket_0: 2740
Non-critical_ROB_Stalls_Percent_0_Bucket_0: 2283886
Critical_ROB_Stalls_Percent_0_Bucket_1: 67978
Non-critical_ROB_Stalls_Percent_0_Bucket_1: 652819
Critical_ROB_Stalls_Percent_0_Bucket_2: 27909
Non-critical_ROB_Stalls_Percent_0_Bucket_2: 219959
Critical_ROB_Stalls_Percent_0_Bucket_3: 3458
Non-critical_ROB_Stalls_Percent_0_Bucket_3: 57757
Critical_ROB_Stalls_Percent_0_Bucket_4: 2
Non-critical_ROB_Stalls_Percent_0_Bucket_4: 21775
Critical_ROB_Stalls_Percent_0_Bucket_5: 0
Non-critical_ROB_Stalls_Percent_0_Bucket_5: 10837
Critical_ROB_Stalls_Percent_0_Bucket_6: 0
Non-critical_ROB_Stalls_Percent_0_Bucket_6: 24247
Critical_ROB_Stalls_Percent_1_Bucket_0: 2740
Non-critical_ROB_Stalls_Percent_1_Bucket_0: 2283886
Critical_ROB_Stalls_Percent_1_Bucket_1: 67978
Non-critical_ROB_Stalls_Percent_1_Bucket_1: 652819
Critical_ROB_Stalls_Percent_1_Bucket_2: 27909
Non-critical_ROB_Stalls_Percent_1_Bucket_2: 219959
Critical_ROB_Stalls_Percent_1_Bucket_3: 3458
Non-critical_ROB_Stalls_Percent_1_Bucket_3: 57757
Critical_ROB_Stalls_Percent_1_Bucket_4: 2
Non-critical_ROB_Stalls_Percent_1_Bucket_4: 21775
Critical_ROB_Stalls_Percent_1_Bucket_5: 0
Non-critical_ROB_Stalls_Percent_1_Bucket_5: 10837
Critical_ROB_Stalls_Percent_1_Bucket_6: 0
Non-critical_ROB_Stalls_Percent_1_Bucket_6: 24247
Critical_ROB_Stalls_Percent_2_Bucket_0: 2740
Non-critical_ROB_Stalls_Percent_2_Bucket_0: 2283886
Critical_ROB_Stalls_Percent_2_Bucket_1: 67978
Non-critical_ROB_Stalls_Percent_2_Bucket_1: 652819
Critical_ROB_Stalls_Percent_2_Bucket_2: 27909
Non-critical_ROB_Stalls_Percent_2_Bucket_2: 219959
Critical_ROB_Stalls_Percent_2_Bucket_3: 3458
Non-critical_ROB_Stalls_Percent_2_Bucket_3: 57757
Critical_ROB_Stalls_Percent_2_Bucket_4: 2
Non-critical_ROB_Stalls_Percent_2_Bucket_4: 21775
Critical_ROB_Stalls_Percent_2_Bucket_5: 0
Non-critical_ROB_Stalls_Percent_2_Bucket_5: 10837
Critical_ROB_Stalls_Percent_2_Bucket_6: 0
Non-critical_ROB_Stalls_Percent_2_Bucket_6: 24247
Critical_ROB_Stalls_Percent_3_Bucket_0: 2740
Non-critical_ROB_Stalls_Percent_3_Bucket_0: 2283886
Critical_ROB_Stalls_Percent_3_Bucket_1: 67978
Non-critical_ROB_Stalls_Percent_3_Bucket_1: 652819
Critical_ROB_Stalls_Percent_3_Bucket_2: 27909
Non-critical_ROB_Stalls_Percent_3_Bucket_2: 219959
Critical_ROB_Stalls_Percent_3_Bucket_3: 3458
Non-critical_ROB_Stalls_Percent_3_Bucket_3: 57757
Critical_ROB_Stalls_Percent_3_Bucket_4: 2
Non-critical_ROB_Stalls_Percent_3_Bucket_4: 21775
Critical_ROB_Stalls_Percent_3_Bucket_5: 0
Non-critical_ROB_Stalls_Percent_3_Bucket_5: 10837
Critical_ROB_Stalls_Percent_3_Bucket_6: 0
Non-critical_ROB_Stalls_Percent_3_Bucket_6: 24247
Critical_ROB_Stalls_Percent_4_Bucket_0: 2740
Non-critical_ROB_Stalls_Percent_4_Bucket_0: 2283886
Critical_ROB_Stalls_Percent_4_Bucket_1: 67978
Non-critical_ROB_Stalls_Percent_4_Bucket_1: 652819
Critical_ROB_Stalls_Percent_4_Bucket_2: 27909
Non-critical_ROB_Stalls_Percent_4_Bucket_2: 219959
Critical_ROB_Stalls_Percent_4_Bucket_3: 3458
Non-critical_ROB_Stalls_Percent_4_Bucket_3: 57757
Critical_ROB_Stalls_Percent_4_Bucket_4: 2
Non-critical_ROB_Stalls_Percent_4_Bucket_4: 21775
Critical_ROB_Stalls_Percent_4_Bucket_5: 0
Non-critical_ROB_Stalls_Percent_4_Bucket_5: 10837
Critical_ROB_Stalls_Percent_4_Bucket_6: 0
Non-critical_ROB_Stalls_Percent_4_Bucket_6: 24247
Critical_ROB_Stalls_Percent_5_Bucket_0: 2740
Non-critical_ROB_Stalls_Percent_5_Bucket_0: 2283886
Critical_ROB_Stalls_Percent_5_Bucket_1: 67978
Non-critical_ROB_Stalls_Percent_5_Bucket_1: 652819
Critical_ROB_Stalls_Percent_5_Bucket_2: 27909
Non-critical_ROB_Stalls_Percent_5_Bucket_2: 219959
Critical_ROB_Stalls_Percent_5_Bucket_3: 3458
Non-critical_ROB_Stalls_Percent_5_Bucket_3: 57757
Critical_ROB_Stalls_Percent_5_Bucket_4: 2
Non-critical_ROB_Stalls_Percent_5_Bucket_4: 21775
Critical_ROB_Stalls_Percent_5_Bucket_5: 0
Non-critical_ROB_Stalls_Percent_5_Bucket_5: 10837
Critical_ROB_Stalls_Percent_5_Bucket_6: 0
Non-critical_ROB_Stalls_Percent_5_Bucket_6: 24247
Critical_ROB_Stalls_Percent_6_Bucket_0: 2740
Non-critical_ROB_Stalls_Percent_6_Bucket_0: 2283886
Critical_ROB_Stalls_Percent_6_Bucket_1: 67978
Non-critical_ROB_Stalls_Percent_6_Bucket_1: 652819
Critical_ROB_Stalls_Percent_6_Bucket_2: 27909
Non-critical_ROB_Stalls_Percent_6_Bucket_2: 219959
Critical_ROB_Stalls_Percent_6_Bucket_3: 3458
Non-critical_ROB_Stalls_Percent_6_Bucket_3: 57757
Critical_ROB_Stalls_Percent_6_Bucket_4: 2
Non-critical_ROB_Stalls_Percent_6_Bucket_4: 21775
Critical_ROB_Stalls_Percent_6_Bucket_5: 0
Non-critical_ROB_Stalls_Percent_6_Bucket_5: 10837
Critical_ROB_Stalls_Percent_6_Bucket_6: 0
Non-critical_ROB_Stalls_Percent_6_Bucket_6: 24247
Critical_ROB_Stalls_Percent_7_Bucket_0: 2740
Non-critical_ROB_Stalls_Percent_7_Bucket_0: 2283886
Critical_ROB_Stalls_Percent_7_Bucket_1: 67978
Non-critical_ROB_Stalls_Percent_7_Bucket_1: 652819
Critical_ROB_Stalls_Percent_7_Bucket_2: 27909
Non-critical_ROB_Stalls_Percent_7_Bucket_2: 219959
Critical_ROB_Stalls_Percent_7_Bucket_3: 3458
Non-critical_ROB_Stalls_Percent_7_Bucket_3: 57757
Critical_ROB_Stalls_Percent_7_Bucket_4: 2
Non-critical_ROB_Stalls_Percent_7_Bucket_4: 21775
Critical_ROB_Stalls_Percent_7_Bucket_5: 0
Non-critical_ROB_Stalls_Percent_7_Bucket_5: 10837
Critical_ROB_Stalls_Percent_7_Bucket_6: 0
Non-critical_ROB_Stalls_Percent_7_Bucket_6: 24247
Critical_ROB_Stalls_Percent_8_Bucket_0: 2740
Non-critical_ROB_Stalls_Percent_8_Bucket_0: 2283886
Critical_ROB_Stalls_Percent_8_Bucket_1: 67978
Non-critical_ROB_Stalls_Percent_8_Bucket_1: 652819
Critical_ROB_Stalls_Percent_8_Bucket_2: 27909
Non-critical_ROB_Stalls_Percent_8_Bucket_2: 219959
Critical_ROB_Stalls_Percent_8_Bucket_3: 3458
Non-critical_ROB_Stalls_Percent_8_Bucket_3: 57757
Critical_ROB_Stalls_Percent_8_Bucket_4: 2
Non-critical_ROB_Stalls_Percent_8_Bucket_4: 21775
Critical_ROB_Stalls_Percent_8_Bucket_5: 0
Non-critical_ROB_Stalls_Percent_8_Bucket_5: 10837
Critical_ROB_Stalls_Percent_8_Bucket_6: 0
Non-critical_ROB_Stalls_Percent_8_Bucket_6: 24247
Average ROB occupancy Load Stall Begin: 39.7279
Average ROB occupancy Load Stall End: 48.0868
Min ROB occupancy Load Stall Begin: 1
Max ROB occupancy Load Stall Begin: 352
Min ROB occupancy Load Stall End: 1
Max ROB occupancy Load Stall End: 352
Average ROB occupancy Critical Load Stall Begin: 49.635
Average ROB occupancy Critical Load Stall End: 57.0805
Min ROB occupancy Critical Load Stall Begin: 1
Max ROB occupancy Critical Load Stall Begin: 352
Min ROB occupancy Critical Load Stall End: 1
Max ROB occupancy Critical Load Stall End: 352
 ROB Load Stall Begin Bucket Count 0: 2525377
 ROB Load Stall End Bucket Count 0: 2286626
 ROB Critical Load Stall Begin Bucket Count 0: 4927
 ROB Critical Load Stall End Bucket Count 0: 4518
 ROB Load Stall Begin Bucket Count 1: 569247
 ROB Load Stall End Bucket Count 1: 720797
 ROB Critical Load Stall Begin Bucket Count 1: 1251
 ROB Critical Load Stall End Bucket Count 1: 1559
 ROB Load Stall Begin Bucket Count 2: 183779
 ROB Load Stall End Bucket Count 2: 247868
 ROB Critical Load Stall Begin Bucket Count 2: 670
 ROB Critical Load Stall End Bucket Count 2: 659
 ROB Load Stall Begin Bucket Count 3: 44518
 ROB Load Stall End Bucket Count 3: 61215
 ROB Critical Load Stall Begin Bucket Count 3: 259
 ROB Critical Load Stall End Bucket Count 3: 334
 ROB Load Stall Begin Bucket Count 4: 17646
 ROB Load Stall End Bucket Count 4: 21777
 ROB Critical Load Stall Begin Bucket Count 4: 68
 ROB Critical Load Stall End Bucket Count 4: 99
 ROB Load Stall Begin Bucket Count 5: 9794
 ROB Load Stall End Bucket Count 5: 10837
 ROB Critical Load Stall Begin Bucket Count 5: 35
 ROB Critical Load Stall End Bucket Count 5: 39
 ROB Load Stall Begin Bucket Count 6: 23006
 ROB Load Stall End Bucket Count 6: 24247
 ROB Critical Load Stall Begin Bucket Count 6: 58
 ROB Critical Load Stall End Bucket Count 6: 61
PIST Tag Read Accesses: 0
PIST Read Accesses: 0
PIST Tag Write Accesses: 0
PIST Write Accesses: 0
Criticality detector called times: 0
Max global_stall_cycles_count: 0
Threshold Modified: 0 times, factor: 0
Sturdy critical IP cache stats: 
 Unused entries: 0
CIC Tag Read Accesses: 0
CIC Read Accesses: 0
CIC Tag Write Accesses: 0
CIC Write Accesses: 0
Wobbly critical IP cache stats: 
 Unused entries: 0
CIC Tag Read Accesses: 147269076
CIC Read Accesses: 0
CIC Tag Write Accesses: 206570
CIC Write Accesses: 0
ITLB TOTAL     ACCESS:    9901100  HIT:    9286678  MISS:     614422  HIT %:    93.7944  MISS %:    6.20559   MPKI: 12.2884
ITLB LOAD TRANSLATION ACCESS:    8071542  HIT:    7978929  MISS:      92613  HIT %:    98.8526  MISS %:     1.1474   MPKI: 1.85226
ITLB TRANSLATION FROM L1D PREFETCHER ACCESS:    1829558  HIT:    1307749  MISS:     521809  HIT %:     71.479  MISS %:     28.521   MPKI: 10.4362
ITLB PREFETCH  REQUESTED:          0  ISSUED:          0  USEFUL:     409087  USELESS:     112726
ITLB USEFUL LOAD PREFETCHES:     409087 PREFETCH ISSUED TO LOWER LEVEL:          0  ACCURACY: inf
ITLB TIMELY PREFETCHES:     409087 LATE PREFETCHES: 315 DROPPED PREFETCHES: 2986
ITLB PREFETCHES SAME FILL-ORIGIN LEVEL: 0 DIFFERENT FILL-ORIGIN LEVEL: 0
ITLB AVERAGE MISS LATENCY: 22619.1 cycles
ITLB RQ	ACCESS:   14519564	FORWARD:          0	MERGED:    4577534	TO_CACHE:    9942030

DTLB TOTAL     ACCESS:   11316415  HIT:   10852241  MISS:     464174  HIT %:    95.8982  MISS %:    4.10178   MPKI: 9.28348
DTLB LOAD TRANSLATION ACCESS:   11316415  HIT:   10852241  MISS:     464174  HIT %:    95.8982  MISS %:    4.10178   MPKI: 9.28348
DTLB PREFETCH  REQUESTED:          0  ISSUED:          0  USEFUL:          0  USELESS:          0
DTLB USEFUL LOAD PREFETCHES:          0 PREFETCH ISSUED TO LOWER LEVEL:          0  ACCURACY: -nan
DTLB TIMELY PREFETCHES:          0 LATE PREFETCHES: 0 DROPPED PREFETCHES: 0
DTLB PREFETCHES SAME FILL-ORIGIN LEVEL: 0 DIFFERENT FILL-ORIGIN LEVEL: 0
DTLB AVERAGE MISS LATENCY: 9.40946 cycles
DTLB RQ	ACCESS:   14768556	FORWARD:          0	MERGED:    3425069	TO_CACHE:   11343487

STLB TOTAL     ACCESS:    1091974  HIT:    1088961  MISS:       3013  HIT %:    99.7241  MISS %:   0.275922   MPKI: 0.06026
STLB LOAD TRANSLATION ACCESS:     556472  HIT:     553714  MISS:       2758  HIT %:    99.5044  MISS %:   0.495622   MPKI: 0.05516
STLB TRANSLATION FROM L1D PREFETCHER ACCESS:     535502  HIT:     535247  MISS:        255  HIT %:    99.9524  MISS %:  0.0476189   MPKI: 0.0051
STLB PREFETCH  REQUESTED:          0  ISSUED:          0  USEFUL:        197  USELESS:         56
STLB USEFUL LOAD PREFETCHES:        197 PREFETCH ISSUED TO LOWER LEVEL:          0  ACCURACY: inf
STLB TIMELY PREFETCHES:        197 LATE PREFETCHES: 0 DROPPED PREFETCHES: 2986
STLB PREFETCHES SAME FILL-ORIGIN LEVEL: 0 DIFFERENT FILL-ORIGIN LEVEL: 0
STLB AVERAGE MISS LATENCY: 69.3488 cycles
STLB RQ	ACCESS:    1104351	FORWARD:          0	MERGED:       9391	TO_CACHE:    1094960

STLB Hit, L1D data hit: 0
STLB Hit, L2C data hit: 0
STLB Hit, LLC data hit: 0
STLB Hit, LLC data miss: 0
STLB STLB hints to L2: 0
L1D TOTAL     ACCESS:   14277673  HIT:   13275233  MISS:    1002440  HIT %:     92.979  MISS %:    7.02103   MPKI: 20.0488
L1D LOAD      ACCESS:    8021331  HIT:    7312215  MISS:     709116  HIT %:    91.1596  MISS %:    8.84038   MPKI: 14.1823
L1D RFO       ACCESS:    6236785  HIT:    5955753  MISS:     281032  HIT %:     95.494  MISS %:    4.50604   MPKI: 5.62064
L1D PREFETCH  ACCESS:      19557  HIT:       7265  MISS:      12292  HIT %:    37.1478  MISS %:    62.8522   MPKI: 0.24584
L1D PREFETCH  REQUESTED:      45551  ISSUED:      45551  USEFUL:       3215  USELESS:       9133
L1D USEFUL LOAD PREFETCHES:       3215 PREFETCH ISSUED TO LOWER LEVEL:      14213  ACCURACY: 22.6201
L1D TIMELY PREFETCHES:       3215 LATE PREFETCHES: 1921 DROPPED PREFETCHES: 0
L1D PREFETCHES SAME FILL-ORIGIN LEVEL: 14213 DIFFERENT FILL-ORIGIN LEVEL: 0
L1D AVERAGE MISS LATENCY: 164414 cycles
L1D RQ	ACCESS:   11538660	FORWARD:          0	MERGED:    3345458	TO_CACHE:    8064656
L1D WQ	ACCESS:    6771059	FORWARD:     128559	MERGED:      67159	TO_CACHE:    6703900
L1D PQ	ACCESS:      22782	FORWARD:          0	MERGED:          0	TO_CACHE:      22769

L1D UNIQUE REGIONS ACCESSED: 0
L1D REGIONS CONFLICTS: 0
L1D Cross Page Prefetch Requests: 0
L1D Same Page Prefetch Requests: 466589
L1D ROI Sum of L1D PQ occupancy: 303396
L1D PREFETCHES PUSHED FROM L2C: 0
L1I TOTAL     ACCESS:   14372911  HIT:   10619087  MISS:    3753824  HIT %:    73.8826  MISS %:    26.1174   MPKI: 75.0765
L1I LOAD      ACCESS:    9397976  HIT:    9118576  MISS:     279400  HIT %:     97.027  MISS %:    2.97298   MPKI: 5.588
L1I PREFETCH  ACCESS:    4974935  HIT:    1500511  MISS:    3474424  HIT %:    30.1614  MISS %:    69.8386   MPKI: 69.4885
L1I PREFETCH  REQUESTED:    5220704  ISSUED:    5206514  USEFUL:    2343184  USELESS:    1131243
L1I USEFUL LOAD PREFETCHES:    2343184 PREFETCH ISSUED TO LOWER LEVEL:    3505512  ACCURACY: 66.8428
L1I TIMELY PREFETCHES:    2343184 LATE PREFETCHES: 31084 DROPPED PREFETCHES: 7736
L1I PREFETCHES SAME FILL-ORIGIN LEVEL: 3505512 DIFFERENT FILL-ORIGIN LEVEL: 0
L1I AVERAGE MISS LATENCY: 448894 cycles
L1I RQ	ACCESS:   13468050	FORWARD:          0	MERGED:    4043730	TO_CACHE:    9424320
L1I PQ	ACCESS:    5206514	FORWARD:          0	MERGED:     111270	TO_CACHE:    5095244

BTB TOTAL     ACCESS:    6210937  HIT:    4468588  MISS:    1742349  HIT %:    71.9471  MISS %:    28.0529   MPKI: 34.847
BTB BRANCH_DIRECT_JUMP	ACCESS:     566815  HIT:     417590  MISS:     149225
BTB BRANCH_INDIRECT	ACCESS:     197171  HIT:     163808  MISS:      33363
BTB BRANCH_CONDITIONAL	ACCESS:    3373175  HIT:    2911629  MISS:     461546
BTB BRANCH_DIRECT_CALL	ACCESS:     876400  HIT:     531836  MISS:     344564
BTB BRANCH_INDIRECT_CALL	ACCESS:     160491  HIT:      90228  MISS:      70263
BTB BRANCH_RETURN	ACCESS:    1036885  HIT:     353497  MISS:     683388
BTB BRANCH_OTHER ACCESS:          0  HIT:          0  MISS:          0

L2C TOTAL     ACCESS:    6225815  HIT:    5363187  MISS:     862628  HIT %:    86.1443  MISS %:    13.8557   MPKI: 17.2526
L2C LOAD      ACCESS:     955483  HIT:     722415  MISS:     233068  HIT %:    75.6073  MISS %:    24.3927   MPKI: 4.66136
L2C DATA LOAD MPKI: 3.81542
L2C INSTRUCTION LOAD MPKI: 0.84594
L2C RFO       ACCESS:     281030  HIT:     183941  MISS:      97089  HIT %:    65.4524  MISS %:    34.5476   MPKI: 1.94178
L2C PREFETCH  ACCESS:    4512116  HIT:    4026029  MISS:     486087  HIT %:    89.2271  MISS %:    10.7729   MPKI: 9.72174
L2C DATA PREFETCH MPKI: 2.35378
L2C INSTRUCTION PREFETCH MPKI: 7.36796
L2C WRITEBACK ACCESS:     468680  HIT:     424615  MISS:      44065  HIT %:    90.5981  MISS %:    9.40194   MPKI: 0.8813
L2C LOAD TRANSLATION ACCESS:       3028  HIT:        905  MISS:       2123  HIT %:    29.8877  MISS %:    70.1123   MPKI: 0.04246
L2C TRANSLATION FROM L1D PREFETCHER ACCESS:       5478  HIT:       5282  MISS:        196  HIT %:    96.4221  MISS %:    3.57795   MPKI: 0.00392
L2C PREFETCH  REQUESTED:    2717989  ISSUED:    2717989  USEFUL:      11480  USELESS:     475515
L2C USEFUL LOAD PREFETCHES:      11480 PREFETCH ISSUED TO LOWER LEVEL:     486256  ACCURACY: 2.3609
L2C TIMELY PREFETCHES:      11480 LATE PREFETCHES: 165 DROPPED PREFETCHES: 0
L2C PREFETCHES SAME FILL-ORIGIN LEVEL: 113341 DIFFERENT FILL-ORIGIN LEVEL: 0
L2C AVERAGE MISS LATENCY: 36.1441 cycles
L2C RQ	ACCESS:    1245049	FORWARD:          0	MERGED:          0	TO_CACHE:    1245019
L2C WQ	ACCESS:     468680	FORWARD:         30	MERGED:          0	TO_CACHE:     468680
L2C PQ	ACCESS:    6237714	FORWARD:          0	MERGED:    1719368	TO_CACHE:    4518346

L2C Instructions Evicting Data 210540
L2C Translations Evicting Data 1486
L2C Data Evicting Data 216378
L2C Instructions Evicting Instructions 199295
L2C Translations Evicting Instructions 808
L2C Data Evicting Instructions 187781
L2C Instructions Evicting Translations 860
L2C Translations Evicting Translations 25
L2C Data Evicting Translations 1390
L2C Dense regions hint from L2: 0
PSCL5 TOTAL     ACCESS:       5999  HIT:       5999  MISS:          0  HIT %:        100  MISS %:          0   MPKI: 0
PSCL5 LOAD TRANSLATION ACCESS:       2758  HIT:       2758  MISS:          0  HIT %:        100  MISS %:          0   MPKI: 0
PSCL5 TRANSLATION FROM L1D PREFETCHER ACCESS:       3241  HIT:       3241  MISS:          0  HIT %:        100  MISS %:          0   MPKI: 0
PSCL5 PREFETCH  REQUESTED:          0  ISSUED:          0  USEFUL:          0  USELESS:          0
PSCL5 USEFUL LOAD PREFETCHES:          0 PREFETCH ISSUED TO LOWER LEVEL:          0  ACCURACY: -nan
PSCL5 TIMELY PREFETCHES:          0 LATE PREFETCHES: 0 DROPPED PREFETCHES: 0
PSCL5 PREFETCHES SAME FILL-ORIGIN LEVEL: 0 DIFFERENT FILL-ORIGIN LEVEL: 0

PSCL4 TOTAL     ACCESS:       5895  HIT:       5889  MISS:          6  HIT %:    99.8982  MISS %:   0.101781   MPKI: 0.00012
PSCL4 LOAD TRANSLATION ACCESS:       2657  HIT:       2651  MISS:          6  HIT %:    99.7742  MISS %:   0.225819   MPKI: 0.00012
PSCL4 TRANSLATION FROM L1D PREFETCHER ACCESS:       3238  HIT:       3238  MISS:          0  HIT %:        100  MISS %:          0   MPKI: 0
PSCL4 PREFETCH  REQUESTED:          0  ISSUED:          0  USEFUL:          0  USELESS:          0
PSCL4 USEFUL LOAD PREFETCHES:          0 PREFETCH ISSUED TO LOWER LEVEL:          0  ACCURACY: -nan
PSCL4 TIMELY PREFETCHES:          0 LATE PREFETCHES: 0 DROPPED PREFETCHES: 0
PSCL4 PREFETCHES SAME FILL-ORIGIN LEVEL: 0 DIFFERENT FILL-ORIGIN LEVEL: 0

PSCL3 TOTAL     ACCESS:       5997  HIT:       5991  MISS:          6  HIT %:    99.8999  MISS %:    0.10005   MPKI: 0.00012
PSCL3 LOAD TRANSLATION ACCESS:       2759  HIT:       2753  MISS:          6  HIT %:    99.7825  MISS %:    0.21747   MPKI: 0.00012
PSCL3 TRANSLATION FROM L1D PREFETCHER ACCESS:       3238  HIT:       3238  MISS:          0  HIT %:        100  MISS %:          0   MPKI: 0
PSCL3 PREFETCH  REQUESTED:          0  ISSUED:          0  USEFUL:          0  USELESS:          0
PSCL3 USEFUL LOAD PREFETCHES:          0 PREFETCH ISSUED TO LOWER LEVEL:          0  ACCURACY: -nan
PSCL3 TIMELY PREFETCHES:          0 LATE PREFETCHES: 0 DROPPED PREFETCHES: 0
PSCL3 PREFETCHES SAME FILL-ORIGIN LEVEL: 0 DIFFERENT FILL-ORIGIN LEVEL: 0

PSCL2 TOTAL     ACCESS:       3800  HIT:       3507  MISS:        293  HIT %:    92.2895  MISS %:    7.71053   MPKI: 0.00586
PSCL2 LOAD TRANSLATION ACCESS:       2790  HIT:       2497  MISS:        293  HIT %:    89.4982  MISS %:    10.5018   MPKI: 0.00586
PSCL2 TRANSLATION FROM L1D PREFETCHER ACCESS:       1010  HIT:       1010  MISS:          0  HIT %:        100  MISS %:          0   MPKI: 0
PSCL2 PREFETCH  REQUESTED:          0  ISSUED:          0  USEFUL:          0  USELESS:          0
PSCL2 USEFUL LOAD PREFETCHES:          0 PREFETCH ISSUED TO LOWER LEVEL:          0  ACCURACY: -nan
PSCL2 TIMELY PREFETCHES:          0 LATE PREFETCHES: 0 DROPPED PREFETCHES: 0
PSCL2 PREFETCHES SAME FILL-ORIGIN LEVEL: 0 DIFFERENT FILL-ORIGIN LEVEL: 0

LLC TOTAL     ACCESS:     956760  HIT:     916200  MISS:      40560  HIT %:    95.7607  MISS %:    4.23931   MPKI: 0.8112
LLC LOAD      ACCESS:     232897  HIT:     217923  MISS:      14974  HIT %:    93.5705  MISS %:    6.42945   MPKI: 0.29948
LLC RFO       ACCESS:      97087  HIT:      74185  MISS:      22902  HIT %:    76.4108  MISS %:    23.5892   MPKI: 0.45804
LLC PREFETCH  ACCESS:     486252  HIT:     484125  MISS:       2127  HIT %:    99.5626  MISS %:   0.437428   MPKI: 0.04254
LLC WRITEBACK ACCESS:     138205  HIT:     137899  MISS:        306  HIT %:    99.7786  MISS %:    0.22141   MPKI: 0.00612
LLC LOAD TRANSLATION ACCESS:       2123  HIT:       1888  MISS:        235  HIT %:    88.9308  MISS %:    11.0692   MPKI: 0.0047
LLC TRANSLATION FROM L1D PREFETCHER ACCESS:        196  HIT:        180  MISS:         16  HIT %:    91.8367  MISS %:    8.16327   MPKI: 0.00032
LLC PREFETCH  REQUESTED:          0  ISSUED:          0  USEFUL:        709  USELESS:       7528
LLC USEFUL LOAD PREFETCHES:        709 PREFETCH ISSUED TO LOWER LEVEL:       2127  ACCURACY: 33.3333
LLC TIMELY PREFETCHES:        709 LATE PREFETCHES: 0 DROPPED PREFETCHES: 0
LLC PREFETCHES SAME FILL-ORIGIN LEVEL: 0 DIFFERENT FILL-ORIGIN LEVEL: 0
LLC AVERAGE MISS LATENCY: 162.58 cycles
LLC RQ	ACCESS:     332311	FORWARD:          0	MERGED:          0	TO_CACHE:     332303
LLC WQ	ACCESS:     138205	FORWARD:          8	MERGED:          0	TO_CACHE:     138205
LLC PQ	ACCESS:     486256	FORWARD:          0	MERGED:          0	TO_CACHE:     486256

LLC Dense regions hint to LLC: 0

RAW hits: 931411
Loads Generated: 12470071
Loads sent to L1D: 11538660
Stores Generated: 6771037
Stores sent to L1D: 6771059
Major fault: 0 Minor fault: 2466
Allocated PAGES: 2466
I-Shadow cache 408 bytes
Touched + WorthPF tables 6144 bytes 
MMA filter 174 bytes 
FNL filter 272 bytes 
TOTAL PREFETCHER STORAGE SIZE: 25174 bytes
CPU 0 L1I next line prefetcher final stats

stream: 
stream:times selected: 533826
stream:pref_filled: 52702
stream:pref_useful: 11987
stream:pref_late: 6007
stream:misses: 4509
stream:misses_by_poll: 0

CS: 
CS:times selected: 43832
CS:pref_filled: 22496
CS:pref_useful: 15954
CS:pref_late: 1504
CS:misses: 4219
CS:misses_by_poll: 0

CPLX: 
CPLX:times selected: 488855
CPLX:pref_filled: 95031
CPLX:pref_useful: 44873
CPLX:pref_late: 2653
CPLX:misses: 41329
CPLX:misses_by_poll: 4

NL_L1: 
NL:times selected: 3399
NL:pref_filled: 155
NL:pref_useful: 32
NL:pref_late: 15
NL:misses: 129
NL:misses_by_poll: 0

total selections: 1069912
total_filled: 12292
total_useful: 3215
total_late: 11067
total_polluted: 4
total_misses_after_warmup: 3565
conflicts: 706
Degree Incremented Times: 0
Degree Decremented Times: 31908

L1 IP Table Write Accesses: 74934
L1 IP Table Read Accesses: 74228
L1 RST Write Accesses: 15886
L1 RST Read Accesses: 31772
L1 CSPT Write Accesses: 15886
L1 CSPT Read Accesses: 48591
L1 RR Filter Tag Write Accesses: 22782
L1 RR Filter Tag Read Accesses: 1035285
L1 IP Table Tag Write Accesses: 76310
L1 IP Table Tag Read Accesses: 76310
L1 RST Tag Write Accesses: 0
L1 RST Tag Read Accesses: 126434
L1 RR Filter Write Accesses: 0
L1 RR Filter Read Accesses: 34246
test: 71772
L2 IP Table Read Accesses: 2794492
L2 IP Table Write Accesses: 5551136
L2 IP Table Tag Read Accesses: 2777562
L2 IP Table Tag Write Accesses: 2777562

DRAM Statistics
 CHANNEL 0
 RQ ROW_BUFFER_HIT:      14698  ROW_BUFFER_MISS:      25546
 DBUS_CONGESTED:          5
 WQ ROW_BUFFER_HIT:       2168  ROW_BUFFER_MISS:      19082  FULL:          0

 AVG_CONGESTED_CYCLE: 4
 All warmup complete: 2
Channel 0 Bank busy for read cycles: 0
Channel 0 Bank busy for write cycles: 0
Channel 0
Rank 0
0banks busy for read cycles: 75861302
0banks busy for write cycles: 4373
1banks busy for read cycles: 1737391
1banks busy for write cycles: 603910
2banks busy for read cycles: 232463
2banks busy for write cycles: 210145
3banks busy for read cycles: 87297
3banks busy for write cycles: 138149
4banks busy for read cycles: 53733
4banks busy for write cycles: 111428
5banks busy for read cycles: 44927
5banks busy for write cycles: 116084
6banks busy for read cycles: 44055
6banks busy for write cycles: 107224
7banks busy for read cycles: 52833
7banks busy for write cycles: 95648
8banks busy for read cycles: 131750
8banks busy for write cycles: 178138

CPU 0 Branch Prediction Accuracy: 99.7477% MPKI: 0.46156 Average ROB Occupancy at Mispredict: 74.8786
Branch types
NOT_BRANCH: 40853615 81.7072%
BRANCH_DIRECT_JUMP: 566815 1.13363%
BRANCH_INDIRECT: 197171 0.394342%
BRANCH_CONDITIONAL: 6308407 12.6168%
BRANCH_DIRECT_CALL: 876400 1.7528%
BRANCH_INDIRECT_CALL: 160491 0.320982%
BRANCH_RETURN: 1036885 2.07377%
BRANCH_OTHER: 0 0%

DRAM PAGES: 1048576
Allocated PAGES: 2466
