
*** ChampSim Multicore Out-of-Order Simulator ***

Warmup Instructions: 50000000
Simulation Instructions: 50000000
Number of CPUs: 1
LLC sets: 2048
LLC ways: 16
Off-chip DRAM Size: 4096 MB Channels: 1 Width: 64-bit Data Rate: 6400 MT/s
CPU 0 runs ../../IPC-traces//server_038.champsimtrace.xz
.xz
NUM_OF_IPS_IN_CRITICAL_IP_TRAINING: 64
NUM_OF_CRITICAL_IP_TRAINING_TABLE_WAYS: 2
NUM_OF_CRITICAL_IP_TRAINING_TABLE_SETS: 32
WOBBLY_CRITICAL_IP_CACHE_SETS: 32
WOBBLY_CRITICAL_IP_CACHE_WAYS: 4
BTB has LRU replacement policy
ITLB has LRU replacement policy
DTLB has LRU replacement policy
STLB has LRU replacement policy
CPU 0 L1I next line prefetcher
L1I has LRU replacement policy
L1D has LRU replacement policy
Bingo PHT WAYS: 16 and PHT_SIZE: 16384
Initialize SRRIP state for L2C
Initialize DRRIP state for LLC
Heartbeat CPU 0 instructions: 10000001 cycles: 2748999 heartbeat IPC: 3.63769 cumulative IPC: 3.63769 (Simulation time: 0 hr 3 min 23 sec) 
Heartbeat CPU 0 instructions: 20000001 cycles: 5496258 heartbeat IPC: 3.63999 cumulative IPC: 3.63884 (Simulation time: 0 hr 6 min 49 sec) 
Heartbeat CPU 0 instructions: 30000003 cycles: 8241992 heartbeat IPC: 3.64201 cumulative IPC: 3.6399 (Simulation time: 0 hr 10 min 8 sec) 
Heartbeat CPU 0 instructions: 40000001 cycles: 10988982 heartbeat IPC: 3.64035 cumulative IPC: 3.64001 (Simulation time: 0 hr 13 min 37 sec) 
Heartbeat CPU 0 instructions: 50000003 cycles: 13736720 heartbeat IPC: 3.63936 cumulative IPC: 3.63988 (Simulation time: 0 hr 16 min 56 sec) 

Warmup complete CPU 0 instructions: 50000003 cycles: 13736720 (Simulation time: 0 hr 16 min 56 sec) 

% increase in all ip prefetch 283.779
% increase in all ip prefetch -2.53714
Heartbeat CPU 0 instructions: 60000000 cycles: 25049541 heartbeat IPC: 0.883953 cumulative IPC: 0.883953 (Simulation time: 0 hr 20 min 7 sec) 
Heartbeat CPU 0 instructions: 70000001 cycles: 36309382 heartbeat IPC: 0.888112 cumulative IPC: 0.886027 (Simulation time: 0 hr 23 min 20 sec) 
Heartbeat CPU 0 instructions: 80000002 cycles: 47611755 heartbeat IPC: 0.88477 cumulative IPC: 0.885608 (Simulation time: 0 hr 26 min 28 sec) 
Heartbeat CPU 0 instructions: 90000001 cycles: 58902794 heartbeat IPC: 0.885658 cumulative IPC: 0.88562 (Simulation time: 0 hr 29 min 35 sec) 
*** Reached end of trace for Core: 0 Repeating trace: ../../IPC-traces//server_038.champsimtrace.xz
Heartbeat CPU 0 instructions: 100000002 cycles: 70195344 heartbeat IPC: 0.88554 cumulative IPC: 0.885604 (Simulation time: 0 hr 32 min 26 sec) 
Finished CPU 0 instructions: 50000003 cycles: 56458625 cumulative IPC: 0.885604 (Simulation time: 0 hr 32 min 26 sec) 

ChampSim completed all CPUs

Region of Interest Statistics

CPU 0 cumulative IPC: 0.885604 instructions: 50000003 cycles: 56458625

CPU 0 Average Load ROB stall cycles: 4.59246e+06
CPU 0 Fraction of times ROB stalled by Loads: 10.9397
CPU 0 Percentage of Load stall cycles in Total stall cycles: 7.7786e+07
 Total stall cycles: 31879806
 Total load stall cycles: 24798026863005
CPU 0 NUM of IPS identified critical: 0
CPU 0 Num of Load IPs stalling ROB: 1978
Threshold modification factor: -1
Max PIST entries: 64
Min PIST entries: 0
Avg PIST entries: 32
Trouble in retire width: 0.712535
MaC = Marked as critical.
lt_50_percent_before_Mac: 0
gt_90_percent_before_Mac: 0
gt_75_percent_before_Mac: 0
gt_50_percent_before_Mac: 0
stall_proportion_bin_same_before_after: 0
stall_proportion_bin_lower_before_after: 0
stall_proportion_bin_upper_before_after: 0
average_stall_proportion_before: -nan
average_stall_proportion_after: -nan
Critical IP stalls, total frequency: 0
Non-critical IP stalls, total frequency: 561310
Critical_IP_ROB_Stalls_Bucket_0: 0
Non-critical_IP_ROB_Stalls_Bucket_0: 369267
Critical_IP_ROB_Stalls_Bucket_1: 0
Non-critical_IP_ROB_Stalls_Bucket_1: 162474
Critical_IP_ROB_Stalls_Bucket_2: 0
Non-critical_IP_ROB_Stalls_Bucket_2: 44054
Critical_IP_ROB_Stalls_Bucket_3: 0
Non-critical_IP_ROB_Stalls_Bucket_3: 11903
Critical_IP_ROB_Stalls_Bucket_4: 0
Non-critical_IP_ROB_Stalls_Bucket_4: 1730
Critical_IP_ROB_Stalls_Bucket_5: 0
Non-critical_IP_ROB_Stalls_Bucket_5: 813
Critical_IP_ROB_Stalls_Bucket_6: 0
Non-critical_IP_ROB_Stalls_Bucket_6: 473
0 => IPs accounting for >50 percent of stalls, 1 => 55, 2 => 60, 3 => 65 and so on till 90.
percent50: 50.178 num IPs:81
percent55: 55.402 num IPs:93
percent60: 60.1381 num IPs:105
percent65: 65.2743 num IPs:119
percent70: 70.0823 num IPs:134
percent75: 75.0676 num IPs:153
percent80: 80.0926 num IPs:181
percent85: 85.004 num IPs:226
percent90: 90.0347 num IPs:308
Critical_ROB_Stalls_Percent_0_Bucket_0: 195718
Non-critical_ROB_Stalls_Percent_0_Bucket_0: 173549
Critical_ROB_Stalls_Percent_0_Bucket_1: 65601
Non-critical_ROB_Stalls_Percent_0_Bucket_1: 96873
Critical_ROB_Stalls_Percent_0_Bucket_2: 16102
Non-critical_ROB_Stalls_Percent_0_Bucket_2: 27952
Critical_ROB_Stalls_Percent_0_Bucket_3: 3518
Non-critical_ROB_Stalls_Percent_0_Bucket_3: 8385
Critical_ROB_Stalls_Percent_0_Bucket_4: 695
Non-critical_ROB_Stalls_Percent_0_Bucket_4: 1035
Critical_ROB_Stalls_Percent_0_Bucket_5: 20
Non-critical_ROB_Stalls_Percent_0_Bucket_5: 793
Critical_ROB_Stalls_Percent_0_Bucket_6: 0
Non-critical_ROB_Stalls_Percent_0_Bucket_6: 473
Critical_ROB_Stalls_Percent_1_Bucket_0: 212017
Non-critical_ROB_Stalls_Percent_1_Bucket_0: 157250
Critical_ROB_Stalls_Percent_1_Bucket_1: 73982
Non-critical_ROB_Stalls_Percent_1_Bucket_1: 88492
Critical_ROB_Stalls_Percent_1_Bucket_2: 19367
Non-critical_ROB_Stalls_Percent_1_Bucket_2: 24687
Critical_ROB_Stalls_Percent_1_Bucket_3: 4825
Non-critical_ROB_Stalls_Percent_1_Bucket_3: 7078
Critical_ROB_Stalls_Percent_1_Bucket_4: 759
Non-critical_ROB_Stalls_Percent_1_Bucket_4: 971
Critical_ROB_Stalls_Percent_1_Bucket_5: 27
Non-critical_ROB_Stalls_Percent_1_Bucket_5: 786
Critical_ROB_Stalls_Percent_1_Bucket_6: 0
Non-critical_ROB_Stalls_Percent_1_Bucket_6: 473
Critical_ROB_Stalls_Percent_2_Bucket_0: 230640
Non-critical_ROB_Stalls_Percent_2_Bucket_0: 138627
Critical_ROB_Stalls_Percent_2_Bucket_1: 80249
Non-critical_ROB_Stalls_Percent_2_Bucket_1: 82225
Critical_ROB_Stalls_Percent_2_Bucket_2: 21041
Non-critical_ROB_Stalls_Percent_2_Bucket_2: 23013
Critical_ROB_Stalls_Percent_2_Bucket_3: 4845
Non-critical_ROB_Stalls_Percent_2_Bucket_3: 7058
Critical_ROB_Stalls_Percent_2_Bucket_4: 759
Non-critical_ROB_Stalls_Percent_2_Bucket_4: 971
Critical_ROB_Stalls_Percent_2_Bucket_5: 27
Non-critical_ROB_Stalls_Percent_2_Bucket_5: 786
Critical_ROB_Stalls_Percent_2_Bucket_6: 0
Non-critical_ROB_Stalls_Percent_2_Bucket_6: 473
Critical_ROB_Stalls_Percent_3_Bucket_0: 248295
Non-critical_ROB_Stalls_Percent_3_Bucket_0: 120972
Critical_ROB_Stalls_Percent_3_Bucket_1: 87291
Non-critical_ROB_Stalls_Percent_3_Bucket_1: 75183
Critical_ROB_Stalls_Percent_3_Bucket_2: 24255
Non-critical_ROB_Stalls_Percent_3_Bucket_2: 19799
Critical_ROB_Stalls_Percent_3_Bucket_3: 5745
Non-critical_ROB_Stalls_Percent_3_Bucket_3: 6158
Critical_ROB_Stalls_Percent_3_Bucket_4: 778
Non-critical_ROB_Stalls_Percent_3_Bucket_4: 952
Critical_ROB_Stalls_Percent_3_Bucket_5: 27
Non-critical_ROB_Stalls_Percent_3_Bucket_5: 786
Critical_ROB_Stalls_Percent_3_Bucket_6: 0
Non-critical_ROB_Stalls_Percent_3_Bucket_6: 473
Critical_ROB_Stalls_Percent_4_Bucket_0: 267421
Non-critical_ROB_Stalls_Percent_4_Bucket_0: 101846
Critical_ROB_Stalls_Percent_4_Bucket_1: 94791
Non-critical_ROB_Stalls_Percent_4_Bucket_1: 67683
Critical_ROB_Stalls_Percent_4_Bucket_2: 24616
Non-critical_ROB_Stalls_Percent_4_Bucket_2: 19438
Critical_ROB_Stalls_Percent_4_Bucket_3: 5746
Non-critical_ROB_Stalls_Percent_4_Bucket_3: 6157
Critical_ROB_Stalls_Percent_4_Bucket_4: 778
Non-critical_ROB_Stalls_Percent_4_Bucket_4: 952
Critical_ROB_Stalls_Percent_4_Bucket_5: 27
Non-critical_ROB_Stalls_Percent_4_Bucket_5: 786
Critical_ROB_Stalls_Percent_4_Bucket_6: 0
Non-critical_ROB_Stalls_Percent_4_Bucket_6: 473
Critical_ROB_Stalls_Percent_5_Bucket_0: 282654
Non-critical_ROB_Stalls_Percent_5_Bucket_0: 86613
Critical_ROB_Stalls_Percent_5_Bucket_1: 103893
Non-critical_ROB_Stalls_Percent_5_Bucket_1: 58581
Critical_ROB_Stalls_Percent_5_Bucket_2: 27337
Non-critical_ROB_Stalls_Percent_5_Bucket_2: 16717
Critical_ROB_Stalls_Percent_5_Bucket_3: 6625
Non-critical_ROB_Stalls_Percent_5_Bucket_3: 5278
Critical_ROB_Stalls_Percent_5_Bucket_4: 819
Non-critical_ROB_Stalls_Percent_5_Bucket_4: 911
Critical_ROB_Stalls_Percent_5_Bucket_5: 34
Non-critical_ROB_Stalls_Percent_5_Bucket_5: 779
Critical_ROB_Stalls_Percent_5_Bucket_6: 0
Non-critical_ROB_Stalls_Percent_5_Bucket_6: 473
Critical_ROB_Stalls_Percent_6_Bucket_0: 300305
Non-critical_ROB_Stalls_Percent_6_Bucket_0: 68962
Critical_ROB_Stalls_Percent_6_Bucket_1: 111452
Non-critical_ROB_Stalls_Percent_6_Bucket_1: 51022
Critical_ROB_Stalls_Percent_6_Bucket_2: 29642
Non-critical_ROB_Stalls_Percent_6_Bucket_2: 14412
Critical_ROB_Stalls_Percent_6_Bucket_3: 6656
Non-critical_ROB_Stalls_Percent_6_Bucket_3: 5247
Critical_ROB_Stalls_Percent_6_Bucket_4: 877
Non-critical_ROB_Stalls_Percent_6_Bucket_4: 853
Critical_ROB_Stalls_Percent_6_Bucket_5: 599
Non-critical_ROB_Stalls_Percent_6_Bucket_5: 214
Critical_ROB_Stalls_Percent_6_Bucket_6: 37
Non-critical_ROB_Stalls_Percent_6_Bucket_6: 436
Critical_ROB_Stalls_Percent_7_Bucket_0: 314477
Non-critical_ROB_Stalls_Percent_7_Bucket_0: 54790
Critical_ROB_Stalls_Percent_7_Bucket_1: 119943
Non-critical_ROB_Stalls_Percent_7_Bucket_1: 42531
Critical_ROB_Stalls_Percent_7_Bucket_2: 32147
Non-critical_ROB_Stalls_Percent_7_Bucket_2: 11907
Critical_ROB_Stalls_Percent_7_Bucket_3: 8474
Non-critical_ROB_Stalls_Percent_7_Bucket_3: 3429
Critical_ROB_Stalls_Percent_7_Bucket_4: 1069
Non-critical_ROB_Stalls_Percent_7_Bucket_4: 661
Critical_ROB_Stalls_Percent_7_Bucket_5: 654
Non-critical_ROB_Stalls_Percent_7_Bucket_5: 159
Critical_ROB_Stalls_Percent_7_Bucket_6: 372
Non-critical_ROB_Stalls_Percent_7_Bucket_6: 101
Critical_ROB_Stalls_Percent_8_Bucket_0: 331048
Non-critical_ROB_Stalls_Percent_8_Bucket_0: 38219
Critical_ROB_Stalls_Percent_8_Bucket_1: 128608
Non-critical_ROB_Stalls_Percent_8_Bucket_1: 33866
Critical_ROB_Stalls_Percent_8_Bucket_2: 34614
Non-critical_ROB_Stalls_Percent_8_Bucket_2: 9440
Critical_ROB_Stalls_Percent_8_Bucket_3: 8969
Non-critical_ROB_Stalls_Percent_8_Bucket_3: 2934
Critical_ROB_Stalls_Percent_8_Bucket_4: 1096
Non-critical_ROB_Stalls_Percent_8_Bucket_4: 634
Critical_ROB_Stalls_Percent_8_Bucket_5: 662
Non-critical_ROB_Stalls_Percent_8_Bucket_5: 151
Critical_ROB_Stalls_Percent_8_Bucket_6: 377
Non-critical_ROB_Stalls_Percent_8_Bucket_6: 96
Average ROB occupancy Load Stall Begin: 45.2503
Average ROB occupancy Load Stall End: 50.3537
Min ROB occupancy Load Stall Begin: 1
Max ROB occupancy Load Stall Begin: 351
Min ROB occupancy Load Stall End: 1
Max ROB occupancy Load Stall End: 352
Average ROB occupancy Critical Load Stall Begin: -nan
Average ROB occupancy Critical Load Stall End: -nan
Min ROB occupancy Critical Load Stall Begin: 400
Max ROB occupancy Critical Load Stall Begin: 0
Min ROB occupancy Critical Load Stall End: 400
Max ROB occupancy Critical Load Stall End: 0
 ROB Load Stall Begin Bucket Count 0: 398478
 ROB Load Stall End Bucket Count 0: 369267
 ROB Critical Load Stall Begin Bucket Count 0: 0
 ROB Critical Load Stall End Bucket Count 0: 0
 ROB Load Stall Begin Bucket Count 1: 142873
 ROB Load Stall End Bucket Count 1: 162474
 ROB Critical Load Stall Begin Bucket Count 1: 0
 ROB Critical Load Stall End Bucket Count 1: 0
 ROB Load Stall Begin Bucket Count 2: 37794
 ROB Load Stall End Bucket Count 2: 44054
 ROB Critical Load Stall Begin Bucket Count 2: 0
 ROB Critical Load Stall End Bucket Count 2: 0
 ROB Load Stall Begin Bucket Count 3: 9537
 ROB Load Stall End Bucket Count 3: 11903
 ROB Critical Load Stall Begin Bucket Count 3: 0
 ROB Critical Load Stall End Bucket Count 3: 0
 ROB Load Stall Begin Bucket Count 4: 890
 ROB Load Stall End Bucket Count 4: 1730
 ROB Critical Load Stall Begin Bucket Count 4: 0
 ROB Critical Load Stall End Bucket Count 4: 0
 ROB Load Stall Begin Bucket Count 5: 754
 ROB Load Stall End Bucket Count 5: 813
 ROB Critical Load Stall Begin Bucket Count 5: 0
 ROB Critical Load Stall End Bucket Count 5: 0
 ROB Load Stall Begin Bucket Count 6: 388
 ROB Load Stall End Bucket Count 6: 473
 ROB Critical Load Stall Begin Bucket Count 6: 0
 ROB Critical Load Stall End Bucket Count 6: 0
PIST Tag Read Accesses: 300776
PIST Read Accesses: 150388
PIST Tag Write Accesses: 300776
PIST Write Accesses: 150388
Criticality detector called times: 297535
Max global_stall_cycles_count: 252628
Threshold Modified: 1 times, factor: -1
ITLB TOTAL     ACCESS:   10582715  HIT:    9865823  MISS:     716892  HIT %:    93.2258  MISS %:    6.77418   MPKI: 14.3378
ITLB LOAD TRANSLATION ACCESS:    8003668  HIT:    7969910  MISS:      33758  HIT %:    99.5782  MISS %:   0.421782   MPKI: 0.67516
ITLB TRANSLATION FROM L1D PREFETCHER ACCESS:    2579047  HIT:    1895913  MISS:     683134  HIT %:    73.5122  MISS %:    26.4878   MPKI: 13.6627
ITLB PREFETCH  REQUESTED:          0  ISSUED:          0  USEFUL:     644053  USELESS:      39081
ITLB USEFUL LOAD PREFETCHES:     644053 PREFETCH ISSUED TO LOWER LEVEL:          0  ACCURACY: inf
ITLB TIMELY PREFETCHES:     644053 LATE PREFETCHES: 4 DROPPED PREFETCHES: 79
ITLB PREFETCHES SAME FILL-ORIGIN LEVEL: 0 DIFFERENT FILL-ORIGIN LEVEL: 0
ITLB AVERAGE MISS LATENCY: 185.537 cycles
ITLB RQ	ACCESS:   16240037	FORWARD:          0	MERGED:    5575167	TO_CACHE:   10664870

DTLB TOTAL     ACCESS:    9428928  HIT:    8909072  MISS:     519856  HIT %:    94.4866  MISS %:    5.51342   MPKI: 10.3971
DTLB LOAD TRANSLATION ACCESS:    9428928  HIT:    8909072  MISS:     519856  HIT %:    94.4866  MISS %:    5.51342   MPKI: 10.3971
DTLB PREFETCH  REQUESTED:          0  ISSUED:          0  USEFUL:          0  USELESS:          0
DTLB USEFUL LOAD PREFETCHES:          0 PREFETCH ISSUED TO LOWER LEVEL:          0  ACCURACY: -nan
DTLB TIMELY PREFETCHES:          0 LATE PREFETCHES: 0 DROPPED PREFETCHES: 0
DTLB PREFETCHES SAME FILL-ORIGIN LEVEL: 0 DIFFERENT FILL-ORIGIN LEVEL: 0
DTLB AVERAGE MISS LATENCY: 9.87689 cycles
DTLB RQ	ACCESS:   13454116	FORWARD:          0	MERGED:    3982862	TO_CACHE:    9471254

STLB TOTAL     ACCESS:    1236748  HIT:    1230873  MISS:       5875  HIT %:     99.525  MISS %:   0.475036   MPKI: 0.1175
STLB LOAD TRANSLATION ACCESS:     553610  HIT:     547856  MISS:       5754  HIT %:    98.9606  MISS %:    1.03936   MPKI: 0.11508
STLB TRANSLATION FROM L1D PREFETCHER ACCESS:     683138  HIT:     683017  MISS:        121  HIT %:    99.9823  MISS %:  0.0177124   MPKI: 0.00242
STLB PREFETCH  REQUESTED:          0  ISSUED:          0  USEFUL:         64  USELESS:         46
STLB USEFUL LOAD PREFETCHES:         64 PREFETCH ISSUED TO LOWER LEVEL:          0  ACCURACY: inf
STLB TIMELY PREFETCHES:         64 LATE PREFETCHES: 0 DROPPED PREFETCHES: 79
STLB PREFETCHES SAME FILL-ORIGIN LEVEL: 0 DIFFERENT FILL-ORIGIN LEVEL: 0
STLB AVERAGE MISS LATENCY: 76.6659 cycles
STLB RQ	ACCESS:    1236827	FORWARD:          0	MERGED:          0	TO_CACHE:    1236827

STLB Hit, L1D data hit: 0
STLB Hit, L2C data hit: 0
STLB Hit, LLC data hit: 0
STLB Hit, LLC data miss: 0
STLB STLB hints to L2: 0
L1D TOTAL     ACCESS:   13355620  HIT:   12915583  MISS:     440037  HIT %:    96.7052  MISS %:    3.29477   MPKI: 8.80074
L1D LOAD      ACCESS:    7104879  HIT:    6730110  MISS:     374769  HIT %:    94.7252  MISS %:    5.27481   MPKI: 7.49538
L1D RFO       ACCESS:    6250741  HIT:    6185473  MISS:      65268  HIT %:    98.9558  MISS %:    1.04416   MPKI: 1.30536
L1D PREFETCH  REQUESTED:          0  ISSUED:          0  USEFUL:          0  USELESS:          0
L1D USEFUL LOAD PREFETCHES:          0 PREFETCH ISSUED TO LOWER LEVEL:          0  ACCURACY: -nan
L1D TIMELY PREFETCHES:          0 LATE PREFETCHES: 0 DROPPED PREFETCHES: 0
L1D PREFETCHES SAME FILL-ORIGIN LEVEL: 0 DIFFERENT FILL-ORIGIN LEVEL: 0
L1D AVERAGE MISS LATENCY: 25.7654 cycles
L1D RQ	ACCESS:   10981969	FORWARD:          0	MERGED:    3707627	TO_CACHE:    7118680
L1D WQ	ACCESS:    6427456	FORWARD:     155662	MERGED:      92020	TO_CACHE:    6335436

L1D UNIQUE REGIONS ACCESSED: 0
L1D REGIONS CONFLICTS: 0
L1D Cross Page Prefetch Requests: 0
L1D Same Page Prefetch Requests: 0
L1D ROI Sum of L1D PQ occupancy: 0
L1D PREFETCHES PUSHED FROM L2C: 0
L1I TOTAL     ACCESS:   16196280  HIT:   11454216  MISS:    4742064  HIT %:    70.7213  MISS %:    29.2787   MPKI: 94.8413
L1I LOAD      ACCESS:    9512893  HIT:    9497909  MISS:      14984  HIT %:    99.8425  MISS %:   0.157513   MPKI: 0.29968
L1I PREFETCH  ACCESS:    6683387  HIT:    1956307  MISS:    4727080  HIT %:    29.2712  MISS %:    70.7288   MPKI: 94.5416
L1I PREFETCH  REQUESTED:    6918365  ISSUED:    6905203  USEFUL:    4105718  USELESS:     621370
L1I USEFUL LOAD PREFETCHES:    4105718 PREFETCH ISSUED TO LOWER LEVEL:    4785083  ACCURACY: 85.8024
L1I TIMELY PREFETCHES:    4105718 LATE PREFETCHES: 3748 DROPPED PREFETCHES: 158
L1I PREFETCHES SAME FILL-ORIGIN LEVEL: 4785083 DIFFERENT FILL-ORIGIN LEVEL: 0
L1I AVERAGE MISS LATENCY: 33060.3 cycles
L1I RQ	ACCESS:   14201102	FORWARD:          0	MERGED:    4687366	TO_CACHE:    9513736
L1I PQ	ACCESS:    6905203	FORWARD:          0	MERGED:     178902	TO_CACHE:    6726301

BTB TOTAL     ACCESS:    5373999  HIT:    4845470  MISS:     528529  HIT %:    90.1651  MISS %:    9.83493   MPKI: 10.5706
BTB BRANCH_DIRECT_JUMP	ACCESS:     541911  HIT:     528428  MISS:      13483
BTB BRANCH_INDIRECT	ACCESS:      59690  HIT:      59594  MISS:         96
BTB BRANCH_CONDITIONAL	ACCESS:    2296252  HIT:    2253029  MISS:      43223
BTB BRANCH_DIRECT_CALL	ACCESS:    1003585  HIT:     965030  MISS:      38555
BTB BRANCH_INDIRECT_CALL	ACCESS:     234499  HIT:     188656  MISS:      45843
BTB BRANCH_RETURN	ACCESS:    1238062  HIT:     850733  MISS:     387329
BTB BRANCH_OTHER ACCESS:          0  HIT:          0  MISS:          0

L2C TOTAL     ACCESS:    5673706  HIT:    5500819  MISS:     172887  HIT %:    96.9528  MISS %:    3.04716   MPKI: 3.45774
L2C LOAD      ACCESS:     385933  HIT:     329438  MISS:      56495  HIT %:    85.3614  MISS %:    14.6386   MPKI: 1.1299
L2C DATA LOAD MPKI: 1.11562
L2C INSTRUCTION LOAD MPKI: 0.01428
L2C RFO       ACCESS:      65267  HIT:      38046  MISS:      27221  HIT %:    58.2929  MISS %:    41.7071   MPKI: 0.54442
L2C PREFETCH  ACCESS:    4981202  HIT:    4901776  MISS:      79426  HIT %:    98.4055  MISS %:    1.59451   MPKI: 1.58852
L2C DATA PREFETCH MPKI: 1.44346
L2C INSTRUCTION PREFETCH MPKI: 0.14506
L2C WRITEBACK ACCESS:     233094  HIT:     228660  MISS:       4434  HIT %:    98.0978  MISS %:    1.90224   MPKI: 0.08868
L2C LOAD TRANSLATION ACCESS:       7872  HIT:       2703  MISS:       5169  HIT %:    34.3369  MISS %:    65.6631   MPKI: 0.10338
L2C TRANSLATION FROM L1D PREFETCHER ACCESS:        338  HIT:        196  MISS:        142  HIT %:    57.9882  MISS %:    42.0118   MPKI: 0.00284
L2C PREFETCH  REQUESTED:     261766  ISSUED:     261766  USEFUL:      60941  USELESS:      18568
L2C USEFUL LOAD PREFETCHES:      60941 PREFETCH ISSUED TO LOWER LEVEL:      80929  ACCURACY: 75.3018
L2C TIMELY PREFETCHES:      60941 LATE PREFETCHES: 1503 DROPPED PREFETCHES: 0
L2C PREFETCHES SAME FILL-ORIGIN LEVEL: 73676 DIFFERENT FILL-ORIGIN LEVEL: 0
L2C AVERAGE MISS LATENCY: 54.5162 cycles
L2C RQ	ACCESS:     459483	FORWARD:          0	MERGED:          0	TO_CACHE:     459410
L2C WQ	ACCESS:     233094	FORWARD:         73	MERGED:          0	TO_CACHE:     233094
L2C PQ	ACCESS:    4992592	FORWARD:          0	MERGED:          6	TO_CACHE:    4992586

L2C Instructions Evicting Data 7227
L2C Translations Evicting Data 4793
L2C Data Evicting Data 143657
L2C Instructions Evicting Instructions 492
L2C Translations Evicting Instructions 236
L2C Data Evicting Instructions 6791
L2C Instructions Evicting Translations 248
L2C Translations Evicting Translations 282
L2C Data Evicting Translations 4727
L2C Dense regions hint from L2: 0
PSCL5 TOTAL     ACCESS:       5954  HIT:       5954  MISS:          0  HIT %:        100  MISS %:          0   MPKI: 0
PSCL5 LOAD TRANSLATION ACCESS:       5754  HIT:       5754  MISS:          0  HIT %:        100  MISS %:          0   MPKI: 0
PSCL5 TRANSLATION FROM L1D PREFETCHER ACCESS:        200  HIT:        200  MISS:          0  HIT %:        100  MISS %:          0   MPKI: 0
PSCL5 PREFETCH  REQUESTED:          0  ISSUED:          0  USEFUL:          0  USELESS:          0
PSCL5 USEFUL LOAD PREFETCHES:          0 PREFETCH ISSUED TO LOWER LEVEL:          0  ACCURACY: -nan
PSCL5 TIMELY PREFETCHES:          0 LATE PREFETCHES: 0 DROPPED PREFETCHES: 0
PSCL5 PREFETCHES SAME FILL-ORIGIN LEVEL: 0 DIFFERENT FILL-ORIGIN LEVEL: 0

PSCL4 TOTAL     ACCESS:       5935  HIT:       5932  MISS:          3  HIT %:    99.9495  MISS %:  0.0505476   MPKI: 6e-05
PSCL4 LOAD TRANSLATION ACCESS:       5735  HIT:       5732  MISS:          3  HIT %:    99.9477  MISS %:  0.0523104   MPKI: 6e-05
PSCL4 TRANSLATION FROM L1D PREFETCHER ACCESS:        200  HIT:        200  MISS:          0  HIT %:        100  MISS %:          0   MPKI: 0
PSCL4 PREFETCH  REQUESTED:          0  ISSUED:          0  USEFUL:          0  USELESS:          0
PSCL4 USEFUL LOAD PREFETCHES:          0 PREFETCH ISSUED TO LOWER LEVEL:          0  ACCURACY: -nan
PSCL4 TIMELY PREFETCHES:          0 LATE PREFETCHES: 0 DROPPED PREFETCHES: 0
PSCL4 PREFETCHES SAME FILL-ORIGIN LEVEL: 0 DIFFERENT FILL-ORIGIN LEVEL: 0

PSCL3 TOTAL     ACCESS:       5945  HIT:       5939  MISS:          6  HIT %:    99.8991  MISS %:   0.100925   MPKI: 0.00012
PSCL3 LOAD TRANSLATION ACCESS:       5745  HIT:       5739  MISS:          6  HIT %:    99.8956  MISS %:   0.104439   MPKI: 0.00012
PSCL3 TRANSLATION FROM L1D PREFETCHER ACCESS:        200  HIT:        200  MISS:          0  HIT %:        100  MISS %:          0   MPKI: 0
PSCL3 PREFETCH  REQUESTED:          0  ISSUED:          0  USEFUL:          0  USELESS:          0
PSCL3 USEFUL LOAD PREFETCHES:          0 PREFETCH ISSUED TO LOWER LEVEL:          0  ACCURACY: -nan
PSCL3 TIMELY PREFETCHES:          0 LATE PREFETCHES: 0 DROPPED PREFETCHES: 0
PSCL3 PREFETCHES SAME FILL-ORIGIN LEVEL: 0 DIFFERENT FILL-ORIGIN LEVEL: 0

PSCL2 TOTAL     ACCESS:       5875  HIT:       3684  MISS:       2191  HIT %:    62.7064  MISS %:    37.2936   MPKI: 0.04382
PSCL2 LOAD TRANSLATION ACCESS:       5813  HIT:       3622  MISS:       2191  HIT %:    62.3086  MISS %:    37.6914   MPKI: 0.04382
PSCL2 TRANSLATION FROM L1D PREFETCHER ACCESS:         62  HIT:         62  MISS:          0  HIT %:        100  MISS %:          0   MPKI: 0
PSCL2 PREFETCH  REQUESTED:          0  ISSUED:          0  USEFUL:          0  USELESS:          0
PSCL2 USEFUL LOAD PREFETCHES:          0 PREFETCH ISSUED TO LOWER LEVEL:          0  ACCURACY: -nan
PSCL2 TIMELY PREFETCHES:          0 LATE PREFETCHES: 0 DROPPED PREFETCHES: 0
PSCL2 PREFETCHES SAME FILL-ORIGIN LEVEL: 0 DIFFERENT FILL-ORIGIN LEVEL: 0

LLC TOTAL     ACCESS:     252895  HIT:     225264  MISS:      27631  HIT %:    89.0741  MISS %:    10.9259   MPKI: 0.55262
LLC LOAD      ACCESS:      55032  HIT:      45347  MISS:       9685  HIT %:    82.4011  MISS %:    17.5989   MPKI: 0.1937
LLC RFO       ACCESS:      27180  HIT:      22850  MISS:       4330  HIT %:    84.0692  MISS %:    15.9308   MPKI: 0.0866
LLC PREFETCH  ACCESS:      80928  HIT:      67716  MISS:      13212  HIT %:    83.6744  MISS %:    16.3256   MPKI: 0.26424
LLC WRITEBACK ACCESS:      84444  HIT:      84192  MISS:        252  HIT %:    99.7016  MISS %:   0.298423   MPKI: 0.00504
LLC LOAD TRANSLATION ACCESS:       5169  HIT:       5017  MISS:        152  HIT %:    97.0594  MISS %:    2.94061   MPKI: 0.00304
LLC TRANSLATION FROM L1D PREFETCHER ACCESS:        142  HIT:        142  MISS:          0  HIT %:        100  MISS %:          0   MPKI: 0
LLC PREFETCH  REQUESTED:          0  ISSUED:          0  USEFUL:        391  USELESS:      10236
LLC USEFUL LOAD PREFETCHES:        391 PREFETCH ISSUED TO LOWER LEVEL:      13212  ACCURACY: 2.95943
LLC TIMELY PREFETCHES:        391 LATE PREFETCHES: 0 DROPPED PREFETCHES: 0
LLC PREFETCHES SAME FILL-ORIGIN LEVEL: 0 DIFFERENT FILL-ORIGIN LEVEL: 0
LLC AVERAGE MISS LATENCY: 158.914 cycles
LLC RQ	ACCESS:      87524	FORWARD:          0	MERGED:          0	TO_CACHE:      87523
LLC WQ	ACCESS:      84444	FORWARD:          2	MERGED:          0	TO_CACHE:      84444
LLC PQ	ACCESS:      80929	FORWARD:          0	MERGED:          0	TO_CACHE:      80928

LLC Dense regions hint to LLC: 0

RAW hits: 1567522
Loads Generated: 12549491
Loads sent to L1D: 10981969
Stores Generated: 6427447
Stores sent to L1D: 6427456
Major fault: 0 Minor fault: 5748
Allocated PAGES: 5748
I-Shadow cache 408 bytes
Touched + WorthPF tables 6144 bytes 
MMA filter 174 bytes 
FNL filter 272 bytes 
TOTAL PREFETCHER STORAGE SIZE: 25174 bytes
CPU 0 L1I next line prefetcher final stats
[Bingo] PHT Access: 68518
[Bingo] PHT Hit PC+Addr: 34053
[Bingo] PHT Hit PC+Offs: 16378
[Bingo] PHT Miss: 18087
[Bingo] Prefetch PC+Addr: 0
[Bingo] Prefetch PC+Offs: 0
[Bingo] Useful PC+Addr: 0
[Bingo] Useful PC+Offs: 0
[Bingo] Useless PC+Addr: 0
[Bingo] Useless PC+Offs: 0
[Bingo] L1 Prefetch per Region: 0
[Bingo] L2 Prefetch per Region: 6.39755
[Bingo] L3 Prefetch per Region: 0
[Bingo] No Prefetch per Region: 25.6024
[Bingo] Number of Voters Mean: 11.8864
[Bingo] Number of Voters SD: 14.0296
PHT read accesses: 443571
PHT write accesses: 39445
AT read accesses: 294697
AT write accesses: 314089
FT read accesses: 186133
FT write accesses: 68518
PS read accesses: 128785
PS write accesses: 50431
PHT tag read accesses: 1494265
PHT tag write accesses: 73498
AT tag read accesses: 10503069
AT tag write accesses: 334141
FT tag read accesses: 7489193
FT tag write accesses: 183673
PS tag read accesses: 7812542
PS tag write accesses: 179094

DRAM Statistics
 CHANNEL 0
 RQ ROW_BUFFER_HIT:       9231  ROW_BUFFER_MISS:      18145
 DBUS_CONGESTED:          2
 WQ ROW_BUFFER_HIT:        597  ROW_BUFFER_MISS:       8152  FULL:          0

 AVG_CONGESTED_CYCLE: 2
 All warmup complete: 2
Channel 0 Bank busy for read cycles: 0
Channel 0 Bank busy for write cycles: 0
Channel 0
Rank 0
0banks busy for read cycles: 53763410
0banks busy for write cycles: 5088
1banks busy for read cycles: 1036091
1banks busy for write cycles: 694508
2banks busy for read cycles: 328329
2banks busy for write cycles: 151731
3banks busy for read cycles: 236938
3banks busy for write cycles: 44843
4banks busy for read cycles: 42649
4banks busy for write cycles: 33905
5banks busy for read cycles: 21145
5banks busy for write cycles: 14610
6banks busy for read cycles: 25933
6banks busy for write cycles: 8285
7banks busy for read cycles: 14909
7banks busy for write cycles: 3590
8banks busy for read cycles: 30687
8banks busy for write cycles: 1975

CPU 0 Branch Prediction Accuracy: 99.9279% MPKI: 0.12968 Average ROB Occupancy at Mispredict: 52.3917
Branch types
NOT_BRANCH: 41006134 82.0123%
BRANCH_DIRECT_JUMP: 541911 1.08382%
BRANCH_INDIRECT: 59690 0.11938%
BRANCH_CONDITIONAL: 5915823 11.8316%
BRANCH_DIRECT_CALL: 1003585 2.00717%
BRANCH_INDIRECT_CALL: 234499 0.468998%
BRANCH_RETURN: 1238062 2.47612%
BRANCH_OTHER: 0 0%

DRAM PAGES: 1048576
Allocated PAGES: 5748
