
*** ChampSim Multicore Out-of-Order Simulator ***

Warmup Instructions: 50000000
Simulation Instructions: 50000000
Number of CPUs: 1
LLC sets: 2048
LLC ways: 16
Off-chip DRAM Size: 4096 MB Channels: 1 Width: 64-bit Data Rate: 6400 MT/s
CPU 0 runs ../IPC-traces//server_037.champsimtrace.xz
.xz
BTB has LRU replacement policy
ITLB has LRU replacement policy
DTLB has LRU replacement policy
STLB has LRU replacement policy
CPU 0 L1I next line prefetcher
L1I has LRU replacement policy
IP Table Entries: 64
L1D has LRU replacement policy
Initialize SRRIP state for L2C
Initialize DRRIP state for LLC
Heartbeat CPU 0 instructions: 10000000 cycles: 2749893 heartbeat IPC: 3.63651 cumulative IPC: 3.63651 (Simulation time: 0 hr 2 min 15 sec) 
Heartbeat CPU 0 instructions: 20000001 cycles: 5496054 heartbeat IPC: 3.64145 cumulative IPC: 3.63897 (Simulation time: 0 hr 4 min 34 sec) 
Heartbeat CPU 0 instructions: 30000000 cycles: 8296600 heartbeat IPC: 3.57073 cumulative IPC: 3.61594 (Simulation time: 0 hr 6 min 52 sec) 
Heartbeat CPU 0 instructions: 40000003 cycles: 11042586 heartbeat IPC: 3.64168 cumulative IPC: 3.62234 (Simulation time: 0 hr 9 min 10 sec) 
Heartbeat CPU 0 instructions: 50000002 cycles: 13787838 heartbeat IPC: 3.64265 cumulative IPC: 3.62638 (Simulation time: 0 hr 11 min 24 sec) 

Warmup complete CPU 0 instructions: 50000002 cycles: 13787838 (Simulation time: 0 hr 11 min 24 sec) 

Heartbeat CPU 0 instructions: 60000000 cycles: 25293152 heartbeat IPC: 0.869163 cumulative IPC: 0.869163 (Simulation time: 0 hr 13 min 56 sec) 
Heartbeat CPU 0 instructions: 70000000 cycles: 36896748 heartbeat IPC: 0.861802 cumulative IPC: 0.865467 (Simulation time: 0 hr 16 min 22 sec) 
Heartbeat CPU 0 instructions: 80000001 cycles: 48345614 heartbeat IPC: 0.873449 cumulative IPC: 0.868111 (Simulation time: 0 hr 18 min 53 sec) 
Heartbeat CPU 0 instructions: 90000002 cycles: 59824515 heartbeat IPC: 0.871164 cumulative IPC: 0.868872 (Simulation time: 0 hr 21 min 22 sec) 
*** Reached end of trace for Core: 0 Repeating trace: ../IPC-traces//server_037.champsimtrace.xz
Heartbeat CPU 0 instructions: 100000003 cycles: 71301292 heartbeat IPC: 0.871325 cumulative IPC: 0.869362 (Simulation time: 0 hr 23 min 45 sec) 
Finished CPU 0 instructions: 50000001 cycles: 57513454 cumulative IPC: 0.869362 (Simulation time: 0 hr 23 min 45 sec) 

ChampSim completed all CPUs

Region of Interest Statistics

CPU 0 cumulative IPC: 0.869362 instructions: 50000001 cycles: 57513454

CPU 0 Average Load ROB stall cycles: 1.48074e+07
CPU 0 Fraction of times ROB stalled by Loads: 34.7546
CPU 0 Percentage of Load stall cycles in Total stall cycles: 2.27702e+08
Issued all: 25245557
Issued LT all: 19514817
rob_not_full_when_issued_lt_all: 19313367
Issued LT one: 14498896
rob_not_full_when_issued_lt_one: 14310947
FVP critical_dynamic_instances_0: 764827
FVP unique_critical_ips_0: 2343
 Total stall cycles: 45766181
 Total load stall cycles: 104210348996721
Unique Load IPs: 6747
CPU 0 NUM of IPS identified critical: 0
CPU 0 Num of Load IPs stalling ROB: 0
Threshold modification factor: 0
Trouble in retire width: -nan
MaC = Marked as critical.
lt_50_percent_before_Mac: 0
gt_90_percent_before_Mac: 0
gt_75_percent_before_Mac: 0
gt_50_percent_before_Mac: 0
stall_proportion_bin_same_before_after: 0
stall_proportion_bin_lower_before_after: 0
stall_proportion_bin_upper_before_after: 0
average_stall_proportion_before: -nan
average_stall_proportion_after: -nan
Critical IP stalls, total frequency: 0
Non-critical IP stalls, total frequency: 0
Total Freq all stalling IPs: 0
Critical_IP_Detector_Accuracy_70: 0.000426803
Critical_IP_Detector_Accuracy_80: 0.000426803
Critical_IP_Detector_Accuracy_90: 0.000426803
Critical_IP_Detector_Coverage_70: 1
Critical_IP_Detector_Coverage_80: 1
Critical_IP_Detector_Coverage_90: 1
stat_90_percent_critical_ip_stalls_freq: 25331
stat_90_percent_non_critical_ip_stalls_freq: 18446744073709526285
AVERAGE_ROB_Occupancy_90_Percent_Critical_IP_Stalls: 94.1739
AVERAGE_ROB_Occupancy_90_Percent_Non_Critical_IP_Stalls: 8.62129e-12
Critical_IP_ROB_Stalls_Bucket_0: 0
Non-critical_IP_ROB_Stalls_Bucket_0: 1102142
Critical_IP_ROB_Stalls_Bucket_1: 0
Non-critical_IP_ROB_Stalls_Bucket_1: 891851
Critical_IP_ROB_Stalls_Bucket_2: 0
Non-critical_IP_ROB_Stalls_Bucket_2: 314997
Critical_IP_ROB_Stalls_Bucket_3: 0
Non-critical_IP_ROB_Stalls_Bucket_3: 92872
Critical_IP_ROB_Stalls_Bucket_4: 0
Non-critical_IP_ROB_Stalls_Bucket_4: 21343
Critical_IP_ROB_Stalls_Bucket_5: 0
Non-critical_IP_ROB_Stalls_Bucket_5: 13969
Critical_IP_ROB_Stalls_Bucket_6: 0
Non-critical_IP_ROB_Stalls_Bucket_6: 8753
0 => IPs accounting for >50 percent of stalls, 1 => 55, 2 => 60, 3 => 65 and so on till 90.
percent50: inf num IPs:  1
percent55: inf num IPs: 1
percent60: inf num IPs: 1
percent65: inf num IPs: 1
percent70: inf num IPs: 1
percent75: inf num IPs: 1
percent80: inf num IPs: 1
percent85: inf num IPs: 1
percent90: inf num IPs: 1
Critical_ROB_Stalls_Percent_0_Bucket_0: 2964
Non-critical_ROB_Stalls_Percent_0_Bucket_0: 1099178
Critical_ROB_Stalls_Percent_0_Bucket_1: 10769
Non-critical_ROB_Stalls_Percent_0_Bucket_1: 881082
Critical_ROB_Stalls_Percent_0_Bucket_2: 11082
Non-critical_ROB_Stalls_Percent_0_Bucket_2: 303915
Critical_ROB_Stalls_Percent_0_Bucket_3: 513
Non-critical_ROB_Stalls_Percent_0_Bucket_3: 92359
Critical_ROB_Stalls_Percent_0_Bucket_4: 1
Non-critical_ROB_Stalls_Percent_0_Bucket_4: 21342
Critical_ROB_Stalls_Percent_0_Bucket_5: 0
Non-critical_ROB_Stalls_Percent_0_Bucket_5: 13969
Critical_ROB_Stalls_Percent_0_Bucket_6: 2
Non-critical_ROB_Stalls_Percent_0_Bucket_6: 8751
Critical_ROB_Stalls_Percent_1_Bucket_0: 2964
Non-critical_ROB_Stalls_Percent_1_Bucket_0: 1099178
Critical_ROB_Stalls_Percent_1_Bucket_1: 10769
Non-critical_ROB_Stalls_Percent_1_Bucket_1: 881082
Critical_ROB_Stalls_Percent_1_Bucket_2: 11082
Non-critical_ROB_Stalls_Percent_1_Bucket_2: 303915
Critical_ROB_Stalls_Percent_1_Bucket_3: 513
Non-critical_ROB_Stalls_Percent_1_Bucket_3: 92359
Critical_ROB_Stalls_Percent_1_Bucket_4: 1
Non-critical_ROB_Stalls_Percent_1_Bucket_4: 21342
Critical_ROB_Stalls_Percent_1_Bucket_5: 0
Non-critical_ROB_Stalls_Percent_1_Bucket_5: 13969
Critical_ROB_Stalls_Percent_1_Bucket_6: 2
Non-critical_ROB_Stalls_Percent_1_Bucket_6: 8751
Critical_ROB_Stalls_Percent_2_Bucket_0: 2964
Non-critical_ROB_Stalls_Percent_2_Bucket_0: 1099178
Critical_ROB_Stalls_Percent_2_Bucket_1: 10769
Non-critical_ROB_Stalls_Percent_2_Bucket_1: 881082
Critical_ROB_Stalls_Percent_2_Bucket_2: 11082
Non-critical_ROB_Stalls_Percent_2_Bucket_2: 303915
Critical_ROB_Stalls_Percent_2_Bucket_3: 513
Non-critical_ROB_Stalls_Percent_2_Bucket_3: 92359
Critical_ROB_Stalls_Percent_2_Bucket_4: 1
Non-critical_ROB_Stalls_Percent_2_Bucket_4: 21342
Critical_ROB_Stalls_Percent_2_Bucket_5: 0
Non-critical_ROB_Stalls_Percent_2_Bucket_5: 13969
Critical_ROB_Stalls_Percent_2_Bucket_6: 2
Non-critical_ROB_Stalls_Percent_2_Bucket_6: 8751
Critical_ROB_Stalls_Percent_3_Bucket_0: 2964
Non-critical_ROB_Stalls_Percent_3_Bucket_0: 1099178
Critical_ROB_Stalls_Percent_3_Bucket_1: 10769
Non-critical_ROB_Stalls_Percent_3_Bucket_1: 881082
Critical_ROB_Stalls_Percent_3_Bucket_2: 11082
Non-critical_ROB_Stalls_Percent_3_Bucket_2: 303915
Critical_ROB_Stalls_Percent_3_Bucket_3: 513
Non-critical_ROB_Stalls_Percent_3_Bucket_3: 92359
Critical_ROB_Stalls_Percent_3_Bucket_4: 1
Non-critical_ROB_Stalls_Percent_3_Bucket_4: 21342
Critical_ROB_Stalls_Percent_3_Bucket_5: 0
Non-critical_ROB_Stalls_Percent_3_Bucket_5: 13969
Critical_ROB_Stalls_Percent_3_Bucket_6: 2
Non-critical_ROB_Stalls_Percent_3_Bucket_6: 8751
Critical_ROB_Stalls_Percent_4_Bucket_0: 2964
Non-critical_ROB_Stalls_Percent_4_Bucket_0: 1099178
Critical_ROB_Stalls_Percent_4_Bucket_1: 10769
Non-critical_ROB_Stalls_Percent_4_Bucket_1: 881082
Critical_ROB_Stalls_Percent_4_Bucket_2: 11082
Non-critical_ROB_Stalls_Percent_4_Bucket_2: 303915
Critical_ROB_Stalls_Percent_4_Bucket_3: 513
Non-critical_ROB_Stalls_Percent_4_Bucket_3: 92359
Critical_ROB_Stalls_Percent_4_Bucket_4: 1
Non-critical_ROB_Stalls_Percent_4_Bucket_4: 21342
Critical_ROB_Stalls_Percent_4_Bucket_5: 0
Non-critical_ROB_Stalls_Percent_4_Bucket_5: 13969
Critical_ROB_Stalls_Percent_4_Bucket_6: 2
Non-critical_ROB_Stalls_Percent_4_Bucket_6: 8751
Critical_ROB_Stalls_Percent_5_Bucket_0: 2964
Non-critical_ROB_Stalls_Percent_5_Bucket_0: 1099178
Critical_ROB_Stalls_Percent_5_Bucket_1: 10769
Non-critical_ROB_Stalls_Percent_5_Bucket_1: 881082
Critical_ROB_Stalls_Percent_5_Bucket_2: 11082
Non-critical_ROB_Stalls_Percent_5_Bucket_2: 303915
Critical_ROB_Stalls_Percent_5_Bucket_3: 513
Non-critical_ROB_Stalls_Percent_5_Bucket_3: 92359
Critical_ROB_Stalls_Percent_5_Bucket_4: 1
Non-critical_ROB_Stalls_Percent_5_Bucket_4: 21342
Critical_ROB_Stalls_Percent_5_Bucket_5: 0
Non-critical_ROB_Stalls_Percent_5_Bucket_5: 13969
Critical_ROB_Stalls_Percent_5_Bucket_6: 2
Non-critical_ROB_Stalls_Percent_5_Bucket_6: 8751
Critical_ROB_Stalls_Percent_6_Bucket_0: 2964
Non-critical_ROB_Stalls_Percent_6_Bucket_0: 1099178
Critical_ROB_Stalls_Percent_6_Bucket_1: 10769
Non-critical_ROB_Stalls_Percent_6_Bucket_1: 881082
Critical_ROB_Stalls_Percent_6_Bucket_2: 11082
Non-critical_ROB_Stalls_Percent_6_Bucket_2: 303915
Critical_ROB_Stalls_Percent_6_Bucket_3: 513
Non-critical_ROB_Stalls_Percent_6_Bucket_3: 92359
Critical_ROB_Stalls_Percent_6_Bucket_4: 1
Non-critical_ROB_Stalls_Percent_6_Bucket_4: 21342
Critical_ROB_Stalls_Percent_6_Bucket_5: 0
Non-critical_ROB_Stalls_Percent_6_Bucket_5: 13969
Critical_ROB_Stalls_Percent_6_Bucket_6: 2
Non-critical_ROB_Stalls_Percent_6_Bucket_6: 8751
Critical_ROB_Stalls_Percent_7_Bucket_0: 2964
Non-critical_ROB_Stalls_Percent_7_Bucket_0: 1099178
Critical_ROB_Stalls_Percent_7_Bucket_1: 10769
Non-critical_ROB_Stalls_Percent_7_Bucket_1: 881082
Critical_ROB_Stalls_Percent_7_Bucket_2: 11082
Non-critical_ROB_Stalls_Percent_7_Bucket_2: 303915
Critical_ROB_Stalls_Percent_7_Bucket_3: 513
Non-critical_ROB_Stalls_Percent_7_Bucket_3: 92359
Critical_ROB_Stalls_Percent_7_Bucket_4: 1
Non-critical_ROB_Stalls_Percent_7_Bucket_4: 21342
Critical_ROB_Stalls_Percent_7_Bucket_5: 0
Non-critical_ROB_Stalls_Percent_7_Bucket_5: 13969
Critical_ROB_Stalls_Percent_7_Bucket_6: 2
Non-critical_ROB_Stalls_Percent_7_Bucket_6: 8751
Critical_ROB_Stalls_Percent_8_Bucket_0: 2964
Non-critical_ROB_Stalls_Percent_8_Bucket_0: 1099178
Critical_ROB_Stalls_Percent_8_Bucket_1: 10769
Non-critical_ROB_Stalls_Percent_8_Bucket_1: 881082
Critical_ROB_Stalls_Percent_8_Bucket_2: 11082
Non-critical_ROB_Stalls_Percent_8_Bucket_2: 303915
Critical_ROB_Stalls_Percent_8_Bucket_3: 513
Non-critical_ROB_Stalls_Percent_8_Bucket_3: 92359
Critical_ROB_Stalls_Percent_8_Bucket_4: 1
Non-critical_ROB_Stalls_Percent_8_Bucket_4: 21342
Critical_ROB_Stalls_Percent_8_Bucket_5: 0
Non-critical_ROB_Stalls_Percent_8_Bucket_5: 13969
Critical_ROB_Stalls_Percent_8_Bucket_6: 2
Non-critical_ROB_Stalls_Percent_8_Bucket_6: 8751
Average ROB occupancy Load Stall Begin: 54.5592
Average ROB occupancy Load Stall End: 65.9956
Min ROB occupancy Load Stall Begin: 1
Max ROB occupancy Load Stall Begin: 352
Min ROB occupancy Load Stall End: 1
Max ROB occupancy Load Stall End: 352
Average ROB occupancy Critical Load Stall Begin: -nan
Average ROB occupancy Critical Load Stall End: -nan
Min ROB occupancy Critical Load Stall Begin: 400
Max ROB occupancy Critical Load Stall Begin: 0
Min ROB occupancy Critical Load Stall End: 400
Max ROB occupancy Critical Load Stall End: 0
 ROB Load Stall Begin Bucket Count 0: 1433795
 ROB Load Stall End Bucket Count 0: 1102142
 ROB Critical Load Stall Begin Bucket Count 0: 0
 ROB Critical Load Stall End Bucket Count 0: 0
 ROB Load Stall Begin Bucket Count 1: 694393
 ROB Load Stall End Bucket Count 1: 891851
 ROB Critical Load Stall Begin Bucket Count 1: 0
 ROB Critical Load Stall End Bucket Count 1: 0
 ROB Load Stall Begin Bucket Count 2: 226536
 ROB Load Stall End Bucket Count 2: 314997
 ROB Critical Load Stall Begin Bucket Count 2: 0
 ROB Critical Load Stall End Bucket Count 2: 0
 ROB Load Stall Begin Bucket Count 3: 60275
 ROB Load Stall End Bucket Count 3: 92872
 ROB Critical Load Stall Begin Bucket Count 3: 0
 ROB Critical Load Stall End Bucket Count 3: 0
 ROB Load Stall Begin Bucket Count 4: 10696
 ROB Load Stall End Bucket Count 4: 21343
 ROB Critical Load Stall Begin Bucket Count 4: 0
 ROB Critical Load Stall End Bucket Count 4: 0
 ROB Load Stall Begin Bucket Count 5: 13607
 ROB Load Stall End Bucket Count 5: 13969
 ROB Critical Load Stall Begin Bucket Count 5: 0
 ROB Critical Load Stall End Bucket Count 5: 0
 ROB Load Stall Begin Bucket Count 6: 6625
 ROB Load Stall End Bucket Count 6: 8753
 ROB Critical Load Stall Begin Bucket Count 6: 0
 ROB Critical Load Stall End Bucket Count 6: 0
PIST Tag Read Accesses: 0
PIST Read Accesses: 0
PIST Tag Write Accesses: 0
PIST Write Accesses: 0
Criticality detector called times: 0
Max global_stall_cycles_count: 0
Threshold Modified: 0 times, factor: 0
ITLB TOTAL     ACCESS:   10667124  HIT:    9933804  MISS:     733320  HIT %:    93.1254  MISS %:    6.87458   MPKI: 14.6664
ITLB LOAD TRANSLATION ACCESS:    8012486  HIT:    7987209  MISS:      25277  HIT %:    99.6845  MISS %:    0.31547   MPKI: 0.50554
ITLB TRANSLATION FROM L1D PREFETCHER ACCESS:    2654638  HIT:    1946595  MISS:     708043  HIT %:    73.3281  MISS %:    26.6719   MPKI: 14.1609
ITLB PREFETCH  REQUESTED:          0  ISSUED:          0  USEFUL:     662924  USELESS:      45125
ITLB USEFUL LOAD PREFETCHES:     662924 PREFETCH ISSUED TO LOWER LEVEL:          0  ACCURACY: inf
ITLB TIMELY PREFETCHES:     662924 LATE PREFETCHES: 112 DROPPED PREFETCHES: 72
ITLB PREFETCHES SAME FILL-ORIGIN LEVEL: 0 DIFFERENT FILL-ORIGIN LEVEL: 0
ITLB AVERAGE MISS LATENCY: 6403.18 cycles
ITLB RQ	ACCESS:   16417798	FORWARD:          0	MERGED:    5681587	TO_CACHE:   10736211

DTLB TOTAL     ACCESS:    9398978  HIT:    8873915  MISS:     525063  HIT %:    94.4136  MISS %:    5.58638   MPKI: 10.5013
DTLB LOAD TRANSLATION ACCESS:    9398978  HIT:    8873915  MISS:     525063  HIT %:    94.4136  MISS %:    5.58638   MPKI: 10.5013
DTLB PREFETCH  REQUESTED:          0  ISSUED:          0  USEFUL:          0  USELESS:          0
DTLB USEFUL LOAD PREFETCHES:          0 PREFETCH ISSUED TO LOWER LEVEL:          0  ACCURACY: -nan
DTLB TIMELY PREFETCHES:          0 LATE PREFETCHES: 0 DROPPED PREFETCHES: 0
DTLB PREFETCHES SAME FILL-ORIGIN LEVEL: 0 DIFFERENT FILL-ORIGIN LEVEL: 0
DTLB AVERAGE MISS LATENCY: 9.92034 cycles
DTLB RQ	ACCESS:   13428062	FORWARD:          0	MERGED:    3986386	TO_CACHE:    9441676

STLB TOTAL     ACCESS:    1274763  HIT:    1268663  MISS:       6100  HIT %:    99.5215  MISS %:    0.47852   MPKI: 0.122
STLB LOAD TRANSLATION ACCESS:     550229  HIT:     544227  MISS:       6002  HIT %:    98.9092  MISS %:    1.09082   MPKI: 0.12004
STLB TRANSLATION FROM L1D PREFETCHER ACCESS:     724534  HIT:     724436  MISS:         98  HIT %:    99.9865  MISS %:  0.0135259   MPKI: 0.00196
STLB PREFETCH  REQUESTED:          0  ISSUED:          0  USEFUL:         69  USELESS:         25
STLB USEFUL LOAD PREFETCHES:         69 PREFETCH ISSUED TO LOWER LEVEL:          0  ACCURACY: inf
STLB TIMELY PREFETCHES:         69 LATE PREFETCHES: 0 DROPPED PREFETCHES: 73
STLB PREFETCHES SAME FILL-ORIGIN LEVEL: 0 DIFFERENT FILL-ORIGIN LEVEL: 0
STLB AVERAGE MISS LATENCY: 80.0951 cycles
STLB RQ	ACCESS:    1278962	FORWARD:          0	MERGED:       4126	TO_CACHE:    1274836

STLB Hit, L1D data hit: 0
STLB Hit, L2C data hit: 0
STLB Hit, LLC data hit: 0
STLB Hit, LLC data miss: 0
STLB STLB hints to L2: 0
L1D TOTAL     ACCESS:   13346730  HIT:   12897876  MISS:     448854  HIT %:     96.637  MISS %:    3.36303   MPKI: 8.97708
L1D LOAD      ACCESS:    7088437  HIT:    6714544  MISS:     373893  HIT %:    94.7253  MISS %:    5.27469   MPKI: 7.47786
L1D RFO       ACCESS:    6238584  HIT:    6176595  MISS:      61989  HIT %:    99.0064  MISS %:   0.993639   MPKI: 1.23978
L1D PREFETCH  ACCESS:      19709  HIT:       6737  MISS:      12972  HIT %:    34.1824  MISS %:    65.8176   MPKI: 0.25944
L1D PREFETCH  REQUESTED:      41012  ISSUED:      41012  USEFUL:       4214  USELESS:       8740
L1D USEFUL LOAD PREFETCHES:       4214 PREFETCH ISSUED TO LOWER LEVEL:      13580  ACCURACY: 31.0309
L1D TIMELY PREFETCHES:       4214 LATE PREFETCHES: 603 DROPPED PREFETCHES: 0
L1D PREFETCHES SAME FILL-ORIGIN LEVEL: 13580 DIFFERENT FILL-ORIGIN LEVEL: 0
L1D AVERAGE MISS LATENCY: 61028.9 cycles
L1D RQ	ACCESS:   10941144	FORWARD:          0	MERGED:    3686163	TO_CACHE:    7104066
L1D WQ	ACCESS:    6420102	FORWARD:     150915	MERGED:      96106	TO_CACHE:    6323996
L1D PQ	ACCESS:      20506	FORWARD:          0	MERGED:          0	TO_CACHE:      20506

L1D UNIQUE REGIONS ACCESSED: 0
L1D REGIONS CONFLICTS: 0
L1D Cross Page Prefetch Requests: 0
L1D Same Page Prefetch Requests: 22238
L1D ROI Sum of L1D PQ occupancy: 267752
L1D PREFETCHES PUSHED FROM L2C: 0
L1I TOTAL     ACCESS:   16339169  HIT:   11518646  MISS:    4820523  HIT %:    70.4971  MISS %:    29.5029   MPKI: 96.4105
L1I LOAD      ACCESS:    9512195  HIT:    9501327  MISS:      10868  HIT %:    99.8857  MISS %:   0.114253   MPKI: 0.21736
L1I PREFETCH  ACCESS:    6826974  HIT:    2017319  MISS:    4809655  HIT %:    29.5492  MISS %:    70.4508   MPKI: 96.1931
L1I PREFETCH  REQUESTED:    7104355  ISSUED:    7093608  USEFUL:    4112596  USELESS:     697123
L1I USEFUL LOAD PREFETCHES:    4112596 PREFETCH ISSUED TO LOWER LEVEL:    4810263  ACCURACY: 85.4963
L1I TIMELY PREFETCHES:    4112596 LATE PREFETCHES: 608 DROPPED PREFETCHES: 128
L1I PREFETCHES SAME FILL-ORIGIN LEVEL: 4810263 DIFFERENT FILL-ORIGIN LEVEL: 0
L1I AVERAGE MISS LATENCY: 4976.57 cycles
L1I RQ	ACCESS:   14209349	FORWARD:          0	MERGED:    4693011	TO_CACHE:    9516338
L1I PQ	ACCESS:    7093608	FORWARD:          0	MERGED:     192148	TO_CACHE:    6901460

BTB TOTAL     ACCESS:    5412892  HIT:    4884021  MISS:     528871  HIT %:    90.2294  MISS %:    9.77058   MPKI: 10.5774
BTB BRANCH_DIRECT_JUMP	ACCESS:     541940  HIT:     528661  MISS:      13279
BTB BRANCH_INDIRECT	ACCESS:      59716  HIT:      59608  MISS:        108
BTB BRANCH_CONDITIONAL	ACCESS:    2331473  HIT:    2288277  MISS:      43196
BTB BRANCH_DIRECT_CALL	ACCESS:    1005459  HIT:     966792  MISS:      38667
BTB BRANCH_INDIRECT_CALL	ACCESS:     234433  HIT:     188681  MISS:      45752
BTB BRANCH_RETURN	ACCESS:    1239871  HIT:     852002  MISS:     387869
BTB BRANCH_OTHER ACCESS:          0  HIT:          0  MISS:          0

L2C TOTAL     ACCESS:    5510235  HIT:    5349764  MISS:     160471  HIT %:    97.0878  MISS %:    2.91224   MPKI: 3.20942
L2C LOAD      ACCESS:     383474  HIT:     270221  MISS:     113253  HIT %:    70.4666  MISS %:    29.5334   MPKI: 2.26506
L2C DATA LOAD MPKI: 2.23998
L2C INSTRUCTION LOAD MPKI: 0.02508
L2C RFO       ACCESS:      61984  HIT:      33836  MISS:      28148  HIT %:    54.5883  MISS %:    45.4117   MPKI: 0.56296
L2C PREFETCH  ACCESS:    4823843  HIT:    4813957  MISS:       9886  HIT %:    99.7951  MISS %:    0.20494   MPKI: 0.19772
L2C DATA PREFETCH MPKI: 0.09966
L2C INSTRUCTION PREFETCH MPKI: 0.09806
L2C WRITEBACK ACCESS:     232290  HIT:     228000  MISS:       4290  HIT %:    98.1532  MISS %:    1.84683   MPKI: 0.0858
L2C LOAD TRANSLATION ACCESS:       8232  HIT:       3439  MISS:       4793  HIT %:     41.776  MISS %:     58.224   MPKI: 0.09586
L2C TRANSLATION FROM L1D PREFETCHER ACCESS:        412  HIT:        311  MISS:        101  HIT %:    75.4854  MISS %:    24.5146   MPKI: 0.00202
L2C PREFETCH  REQUESTED:          0  ISSUED:          0  USEFUL:        459  USELESS:       9262
L2C USEFUL LOAD PREFETCHES:        459 PREFETCH ISSUED TO LOWER LEVEL:       9886  ACCURACY: 4.64293
L2C TIMELY PREFETCHES:        459 LATE PREFETCHES: 0 DROPPED PREFETCHES: 0
L2C PREFETCHES SAME FILL-ORIGIN LEVEL: 0 DIFFERENT FILL-ORIGIN LEVEL: 0
L2C AVERAGE MISS LATENCY: 53.1499 cycles
L2C RQ	ACCESS:     454179	FORWARD:          0	MERGED:          0	TO_CACHE:     454103
L2C WQ	ACCESS:     232290	FORWARD:         76	MERGED:          0	TO_CACHE:     232290
L2C PQ	ACCESS:    4823843	FORWARD:          0	MERGED:          0	TO_CACHE:    4823843

L2C Instructions Evicting Data 5446
L2C Translations Evicting Data 4447
L2C Data Evicting Data 135505
L2C Instructions Evicting Instructions 510
L2C Translations Evicting Instructions 235
L2C Data Evicting Instructions 5205
L2C Instructions Evicting Translations 201
L2C Translations Evicting Translations 212
L2C Data Evicting Translations 4420
L2C Dense regions hint from L2: 0
PSCL5 TOTAL     ACCESS:       6173  HIT:       6173  MISS:          0  HIT %:        100  MISS %:          0   MPKI: 0
PSCL5 LOAD TRANSLATION ACCESS:       6002  HIT:       6002  MISS:          0  HIT %:        100  MISS %:          0   MPKI: 0
PSCL5 TRANSLATION FROM L1D PREFETCHER ACCESS:        171  HIT:        171  MISS:          0  HIT %:        100  MISS %:          0   MPKI: 0
PSCL5 PREFETCH  REQUESTED:          0  ISSUED:          0  USEFUL:          0  USELESS:          0
PSCL5 USEFUL LOAD PREFETCHES:          0 PREFETCH ISSUED TO LOWER LEVEL:          0  ACCURACY: -nan
PSCL5 TIMELY PREFETCHES:          0 LATE PREFETCHES: 0 DROPPED PREFETCHES: 0
PSCL5 PREFETCHES SAME FILL-ORIGIN LEVEL: 0 DIFFERENT FILL-ORIGIN LEVEL: 0

PSCL4 TOTAL     ACCESS:       6080  HIT:       6075  MISS:          5  HIT %:    99.9178  MISS %:  0.0822368   MPKI: 0.0001
PSCL4 LOAD TRANSLATION ACCESS:       5967  HIT:       5962  MISS:          5  HIT %:    99.9162  MISS %:  0.0837942   MPKI: 0.0001
PSCL4 TRANSLATION FROM L1D PREFETCHER ACCESS:        113  HIT:        113  MISS:          0  HIT %:        100  MISS %:          0   MPKI: 0
PSCL4 PREFETCH  REQUESTED:          0  ISSUED:          0  USEFUL:          0  USELESS:          0
PSCL4 USEFUL LOAD PREFETCHES:          0 PREFETCH ISSUED TO LOWER LEVEL:          0  ACCURACY: -nan
PSCL4 TIMELY PREFETCHES:          0 LATE PREFETCHES: 0 DROPPED PREFETCHES: 0
PSCL4 PREFETCHES SAME FILL-ORIGIN LEVEL: 0 DIFFERENT FILL-ORIGIN LEVEL: 0

PSCL3 TOTAL     ACCESS:       6101  HIT:       6072  MISS:         29  HIT %:    99.5247  MISS %:   0.475332   MPKI: 0.00058
PSCL3 LOAD TRANSLATION ACCESS:       5993  HIT:       5964  MISS:         29  HIT %:    99.5161  MISS %:   0.483898   MPKI: 0.00058
PSCL3 TRANSLATION FROM L1D PREFETCHER ACCESS:        108  HIT:        108  MISS:          0  HIT %:        100  MISS %:          0   MPKI: 0
PSCL3 PREFETCH  REQUESTED:          0  ISSUED:          0  USEFUL:          0  USELESS:          0
PSCL3 USEFUL LOAD PREFETCHES:          0 PREFETCH ISSUED TO LOWER LEVEL:          0  ACCURACY: -nan
PSCL3 TIMELY PREFETCHES:          0 LATE PREFETCHES: 0 DROPPED PREFETCHES: 0
PSCL3 PREFETCHES SAME FILL-ORIGIN LEVEL: 0 DIFFERENT FILL-ORIGIN LEVEL: 0

PSCL2 TOTAL     ACCESS:       6110  HIT:       3822  MISS:       2288  HIT %:    62.5532  MISS %:    37.4468   MPKI: 0.04576
PSCL2 LOAD TRANSLATION ACCESS:       6061  HIT:       3773  MISS:       2288  HIT %:    62.2505  MISS %:    37.7495   MPKI: 0.04576
PSCL2 TRANSLATION FROM L1D PREFETCHER ACCESS:         49  HIT:         49  MISS:          0  HIT %:        100  MISS %:          0   MPKI: 0
PSCL2 PREFETCH  REQUESTED:          0  ISSUED:          0  USEFUL:          0  USELESS:          0
PSCL2 USEFUL LOAD PREFETCHES:          0 PREFETCH ISSUED TO LOWER LEVEL:          0  ACCURACY: -nan
PSCL2 TIMELY PREFETCHES:          0 LATE PREFETCHES: 0 DROPPED PREFETCHES: 0
PSCL2 PREFETCHES SAME FILL-ORIGIN LEVEL: 0 DIFFERENT FILL-ORIGIN LEVEL: 0

LLC TOTAL     ACCESS:     235037  HIT:     210519  MISS:      24518  HIT %:    89.5685  MISS %:    10.4315   MPKI: 0.49036
LLC LOAD      ACCESS:     113252  HIT:      97894  MISS:      15358  HIT %:    86.4391  MISS %:    13.5609   MPKI: 0.30716
LLC RFO       ACCESS:      28148  HIT:      22592  MISS:       5556  HIT %:    80.2615  MISS %:    19.7385   MPKI: 0.11112
LLC PREFETCH  ACCESS:       9886  HIT:       6776  MISS:       3110  HIT %:    68.5414  MISS %:    31.4586   MPKI: 0.0622
LLC WRITEBACK ACCESS:      78857  HIT:      78605  MISS:        252  HIT %:    99.6804  MISS %:   0.319566   MPKI: 0.00504
LLC LOAD TRANSLATION ACCESS:       4793  HIT:       4558  MISS:        235  HIT %:     95.097  MISS %:    4.90298   MPKI: 0.0047
LLC TRANSLATION FROM L1D PREFETCHER ACCESS:        101  HIT:         94  MISS:          7  HIT %:    93.0693  MISS %:    6.93069   MPKI: 0.00014
LLC PREFETCH  REQUESTED:          0  ISSUED:          0  USEFUL:         23  USELESS:        715
LLC USEFUL LOAD PREFETCHES:         23 PREFETCH ISSUED TO LOWER LEVEL:       3110  ACCURACY: 0.73955
LLC TIMELY PREFETCHES:         23 LATE PREFETCHES: 0 DROPPED PREFETCHES: 0
LLC PREFETCHES SAME FILL-ORIGIN LEVEL: 0 DIFFERENT FILL-ORIGIN LEVEL: 0
LLC AVERAGE MISS LATENCY: 156.393 cycles
LLC RQ	ACCESS:     146296	FORWARD:          0	MERGED:          0	TO_CACHE:     146295
LLC WQ	ACCESS:      78857	FORWARD:          1	MERGED:          0	TO_CACHE:      78857
LLC PQ	ACCESS:       9886	FORWARD:          0	MERGED:          0	TO_CACHE:       9886

LLC Dense regions hint to LLC: 0

RAW hits: 1599226
Loads Generated: 12540372
Loads sent to L1D: 10941144
Stores Generated: 6420092
Stores sent to L1D: 6420102
Major fault: 0 Minor fault: 5878
Allocated PAGES: 5878
I-Shadow cache 408 bytes
Touched + WorthPF tables 6144 bytes 
MMA filter 174 bytes 
FNL filter 272 bytes 
TOTAL PREFETCHER STORAGE SIZE: 25174 bytes
CPU 0 L1I next line prefetcher final stats

stream: 
stream:times selected: 36140
stream:pref_filled: 9460
stream:pref_useful: 3141
stream:pref_late: 52
stream:misses: 64
stream:misses_by_poll: 0

CS: 
CS:times selected: 1791
CS:pref_filled: 884
CS:pref_useful: 842
CS:pref_late: 526
CS:misses: 586
CS:misses_by_poll: 0

CPLX: 
CPLX:times selected: 33090
CPLX:pref_filled: 3476
CPLX:pref_useful: 364
CPLX:pref_late: 12
CPLX:misses: 121
CPLX:misses_by_poll: 0

NL_L1: 
NL:times selected: 250
NL:pref_filled: 106
NL:pref_useful: 58
NL:pref_late: 0
NL:misses: 1
NL:misses_by_poll: 0

total selections: 71271
total_filled: 12972
total_useful: 4214
total_late: 608
total_polluted: 0
total_misses_after_warmup: 19042
conflicts: 145883
Degree Incremented Times: 2
Degree Decremented Times: 2946

L1 IP Table Write Accesses: 236993
L1 IP Table Read Accesses: 91110
L1 RST Write Accesses: 34808
L1 RST Read Accesses: 69616
L1 CSPT Write Accesses: 34808
L1 CSPT Read Accesses: 69288
L1 RR Filter Tag Write Accesses: 20506
L1 RR Filter Tag Read Accesses: 1339081
L1 IP Table Tag Write Accesses: 401768
L1 IP Table Tag Read Accesses: 401768
L1 RST Tag Write Accesses: 0
L1 RST Tag Read Accesses: 247512
L1 RR Filter Write Accesses: 0
L1 RR Filter Read Accesses: 57488
test: 16623

DRAM Statistics
 CHANNEL 0
 RQ ROW_BUFFER_HIT:       4480  ROW_BUFFER_MISS:      19786
 DBUS_CONGESTED:          8
 WQ ROW_BUFFER_HIT:        803  ROW_BUFFER_MISS:       7537  FULL:          0

 AVG_CONGESTED_CYCLE: 5
 All warmup complete: 2
Channel 0 Bank busy for read cycles: 0
Channel 0 Bank busy for write cycles: 0
Channel 0
Rank 0
0banks busy for read cycles: 53895042
0banks busy for write cycles: 5816
1banks busy for read cycles: 1919411
1banks busy for write cycles: 932397
2banks busy for read cycles: 440654
2banks busy for write cycles: 171528
3banks busy for read cycles: 25491
3banks busy for write cycles: 28281
4banks busy for read cycles: 11362
4banks busy for write cycles: 17933
5banks busy for read cycles: 12406
5banks busy for write cycles: 6389
6banks busy for read cycles: 16700
6banks busy for write cycles: 4741
7banks busy for read cycles: 15269
7banks busy for write cycles: 6813
8banks busy for read cycles: 32
8banks busy for write cycles: 3190

CPU 0 Branch Prediction Accuracy: 99.913% MPKI: 0.15656 Average ROB Occupancy at Mispredict: 48.21
Branch types
NOT_BRANCH: 41001602 82.0032%
BRANCH_DIRECT_JUMP: 541940 1.08388%
BRANCH_INDIRECT: 59716 0.119432%
BRANCH_CONDITIONAL: 5916840 11.8337%
BRANCH_DIRECT_CALL: 1005459 2.01092%
BRANCH_INDIRECT_CALL: 234433 0.468866%
BRANCH_RETURN: 1239871 2.47974%
BRANCH_OTHER: 0 0%

DRAM PAGES: 1048576
Allocated PAGES: 5878
