
*** ChampSim Multicore Out-of-Order Simulator ***

Warmup Instructions: 50000000
Simulation Instructions: 50000000
Number of CPUs: 1
LLC sets: 2048
LLC ways: 16
Off-chip DRAM Size: 4096 MB Channels: 1 Width: 64-bit Data Rate: 6400 MT/s
CPU 0 runs ../IPC-traces//server_039.champsimtrace.xz
.xz
NUM_OF_IPS_IN_CRITICAL_IP_TRAINING: 64
NUM_OF_CRITICAL_IP_TRAINING_TABLE_WAYS: 2
NUM_OF_CRITICAL_IP_TRAINING_TABLE_SETS: 32
WOBBLY_CRITICAL_IP_CACHE_SETS: 32
WOBBLY_CRITICAL_IP_CACHE_WAYS: 4
BTB has LRU replacement policy
ITLB has LRU replacement policy
DTLB has LRU replacement policy
STLB has LRU replacement policy
CPU 0 L1I next line prefetcher
L1I has LRU replacement policy
IP Table Entries: 64
L1D has LRU replacement policy
Initialize SRRIP state for L2C
Initialize DRRIP state for LLC
Heartbeat CPU 0 instructions: 10000003 cycles: 2788692 heartbeat IPC: 3.58591 cumulative IPC: 3.58591 (Simulation time: 0 hr 4 min 41 sec) 
Heartbeat CPU 0 instructions: 20000002 cycles: 5568399 heartbeat IPC: 3.5975 cumulative IPC: 3.5917 (Simulation time: 0 hr 9 min 13 sec) 
Heartbeat CPU 0 instructions: 30000001 cycles: 8351323 heartbeat IPC: 3.59334 cumulative IPC: 3.59225 (Simulation time: 0 hr 13 min 10 sec) 
Heartbeat CPU 0 instructions: 40000002 cycles: 11130545 heartbeat IPC: 3.59813 cumulative IPC: 3.59371 (Simulation time: 0 hr 17 min 12 sec) 
Heartbeat CPU 0 instructions: 50000003 cycles: 13909604 heartbeat IPC: 3.59834 cumulative IPC: 3.59464 (Simulation time: 0 hr 20 min 59 sec) 

Warmup complete CPU 0 instructions: 50000003 cycles: 13909604 (Simulation time: 0 hr 20 min 59 sec) 

% increase in all ip prefetch 295.485
% increase in all ip prefetch 0.564167
Heartbeat CPU 0 instructions: 60000000 cycles: 25638029 heartbeat IPC: 0.852629 cumulative IPC: 0.852629 (Simulation time: 0 hr 24 min 18 sec) 
Heartbeat CPU 0 instructions: 70000000 cycles: 37340276 heartbeat IPC: 0.854537 cumulative IPC: 0.853582 (Simulation time: 0 hr 27 min 32 sec) 
Heartbeat CPU 0 instructions: 80000000 cycles: 49050033 heartbeat IPC: 0.853989 cumulative IPC: 0.853717 (Simulation time: 0 hr 30 min 45 sec) 
Heartbeat CPU 0 instructions: 90000001 cycles: 60755588 heartbeat IPC: 0.854295 cumulative IPC: 0.853862 (Simulation time: 0 hr 34 min 0 sec) 
Heartbeat CPU 0 instructions: 100000002 cycles: 72459284 heartbeat IPC: 0.854431 cumulative IPC: 0.853976 (Simulation time: 0 hr 37 min 40 sec) 
Finished CPU 0 instructions: 50000003 cycles: 58549681 cumulative IPC: 0.853976 (Simulation time: 0 hr 37 min 40 sec) 

ChampSim completed all CPUs

Region of Interest Statistics

CPU 0 cumulative IPC: 0.853976 instructions: 50000003 cycles: 58549681

CPU 0 Average Load ROB stall cycles: 1.5068e+07
CPU 0 Fraction of times ROB stalled by Loads: 34.9003
CPU 0 Percentage of Load stall cycles in Total stall cycles: 2.50067e+08
Issued all: 25363538
Issued LT all: 19320311
rob_not_full_when_issued_lt_all: 18943847
Issued LT one: 14753797
rob_not_full_when_issued_lt_one: 14407327
 Total stall cycles: 47035178
 Total load stall cycles: 117619303944110
CPU 0 NUM of IPS identified critical: 0
CPU 0 Num of Load IPs stalling ROB: 3312
Threshold modification factor: -1
Max PIST entries: 64
Min PIST entries: 0
Avg PIST entries: 32
Trouble in retire width: 0.821472
MaC = Marked as critical.
lt_50_percent_before_Mac: 0
gt_90_percent_before_Mac: 0
gt_75_percent_before_Mac: 0
gt_50_percent_before_Mac: 0
stall_proportion_bin_same_before_after: 0
stall_proportion_bin_lower_before_after: 0
stall_proportion_bin_upper_before_after: 0
average_stall_proportion_before: -nan
average_stall_proportion_after: -nan
Critical IP stalls, total frequency: 0
Non-critical IP stalls, total frequency: 2724284
Total Freq all stalling IPs: 2724284
stat_90_percent_critical_ip_stalls_freq: 2453201
stat_90_percent_non_critical_ip_stalls_freq: 271083
Critical_IP_ROB_Stalls_Bucket_0: 0
Non-critical_IP_ROB_Stalls_Bucket_0: 1203684
Critical_IP_ROB_Stalls_Bucket_1: 0
Non-critical_IP_ROB_Stalls_Bucket_1: 920866
Critical_IP_ROB_Stalls_Bucket_2: 0
Non-critical_IP_ROB_Stalls_Bucket_2: 318639
Critical_IP_ROB_Stalls_Bucket_3: 0
Non-critical_IP_ROB_Stalls_Bucket_3: 111614
Critical_IP_ROB_Stalls_Bucket_4: 0
Non-critical_IP_ROB_Stalls_Bucket_4: 56343
Critical_IP_ROB_Stalls_Bucket_5: 0
Non-critical_IP_ROB_Stalls_Bucket_5: 41881
Critical_IP_ROB_Stalls_Bucket_6: 0
Non-critical_IP_ROB_Stalls_Bucket_6: 71257
0 => IPs accounting for >50 percent of stalls, 1 => 55, 2 => 60, 3 => 65 and so on till 90.
percent50: 50.0667 num IPs:  218
percent55: 55.0121 num IPs: 259
percent60: 60.0775 num IPs: 301
percent65: 65.0101 num IPs: 342
percent70: 70.1036 num IPs: 385
percent75: 75.0772 num IPs: 428
percent80: 80.09 num IPs: 473
percent85: 85.0922 num IPs: 522
percent90: 90.0498 num IPs: 584
Critical_ROB_Stalls_Percent_0_Bucket_0: 466381
Non-critical_ROB_Stalls_Percent_0_Bucket_0: 737303
Critical_ROB_Stalls_Percent_0_Bucket_1: 451416
Non-critical_ROB_Stalls_Percent_0_Bucket_1: 469450
Critical_ROB_Stalls_Percent_0_Bucket_2: 182923
Non-critical_ROB_Stalls_Percent_0_Bucket_2: 135716
Critical_ROB_Stalls_Percent_0_Bucket_3: 94400
Non-critical_ROB_Stalls_Percent_0_Bucket_3: 17214
Critical_ROB_Stalls_Percent_0_Bucket_4: 55718
Non-critical_ROB_Stalls_Percent_0_Bucket_4: 625
Critical_ROB_Stalls_Percent_0_Bucket_5: 41861
Non-critical_ROB_Stalls_Percent_0_Bucket_5: 20
Critical_ROB_Stalls_Percent_0_Bucket_6: 71254
Non-critical_ROB_Stalls_Percent_0_Bucket_6: 3
Critical_ROB_Stalls_Percent_1_Bucket_0: 514811
Non-critical_ROB_Stalls_Percent_1_Bucket_0: 688873
Critical_ROB_Stalls_Percent_1_Bucket_1: 514265
Non-critical_ROB_Stalls_Percent_1_Bucket_1: 406601
Critical_ROB_Stalls_Percent_1_Bucket_2: 204796
Non-critical_ROB_Stalls_Percent_1_Bucket_2: 113843
Critical_ROB_Stalls_Percent_1_Bucket_3: 95974
Non-critical_ROB_Stalls_Percent_1_Bucket_3: 15640
Critical_ROB_Stalls_Percent_1_Bucket_4: 55718
Non-critical_ROB_Stalls_Percent_1_Bucket_4: 625
Critical_ROB_Stalls_Percent_1_Bucket_5: 41861
Non-critical_ROB_Stalls_Percent_1_Bucket_5: 20
Critical_ROB_Stalls_Percent_1_Bucket_6: 71254
Non-critical_ROB_Stalls_Percent_1_Bucket_6: 3
Critical_ROB_Stalls_Percent_2_Bucket_0: 564292
Non-critical_ROB_Stalls_Percent_2_Bucket_0: 639392
Critical_ROB_Stalls_Percent_2_Bucket_1: 582308
Non-critical_ROB_Stalls_Percent_2_Bucket_1: 338558
Critical_ROB_Stalls_Percent_2_Bucket_2: 222908
Non-critical_ROB_Stalls_Percent_2_Bucket_2: 95731
Critical_ROB_Stalls_Percent_2_Bucket_3: 98311
Non-critical_ROB_Stalls_Percent_2_Bucket_3: 13303
Critical_ROB_Stalls_Percent_2_Bucket_4: 55738
Non-critical_ROB_Stalls_Percent_2_Bucket_4: 605
Critical_ROB_Stalls_Percent_2_Bucket_5: 41861
Non-critical_ROB_Stalls_Percent_2_Bucket_5: 20
Critical_ROB_Stalls_Percent_2_Bucket_6: 71255
Non-critical_ROB_Stalls_Percent_2_Bucket_6: 2
Critical_ROB_Stalls_Percent_3_Bucket_0: 624451
Non-critical_ROB_Stalls_Percent_3_Bucket_0: 579233
Critical_ROB_Stalls_Percent_3_Bucket_1: 631754
Non-critical_ROB_Stalls_Percent_3_Bucket_1: 289112
Critical_ROB_Stalls_Percent_3_Bucket_2: 246341
Non-critical_ROB_Stalls_Percent_3_Bucket_2: 72298
Critical_ROB_Stalls_Percent_3_Bucket_3: 99651
Non-critical_ROB_Stalls_Percent_3_Bucket_3: 11963
Critical_ROB_Stalls_Percent_3_Bucket_4: 55738
Non-critical_ROB_Stalls_Percent_3_Bucket_4: 605
Critical_ROB_Stalls_Percent_3_Bucket_5: 41861
Non-critical_ROB_Stalls_Percent_3_Bucket_5: 20
Critical_ROB_Stalls_Percent_3_Bucket_6: 71255
Non-critical_ROB_Stalls_Percent_3_Bucket_6: 2
Critical_ROB_Stalls_Percent_4_Bucket_0: 692164
Non-critical_ROB_Stalls_Percent_4_Bucket_0: 511520
Critical_ROB_Stalls_Percent_4_Bucket_1: 685852
Non-critical_ROB_Stalls_Percent_4_Bucket_1: 235014
Critical_ROB_Stalls_Percent_4_Bucket_2: 258676
Non-critical_ROB_Stalls_Percent_4_Bucket_2: 59963
Critical_ROB_Stalls_Percent_4_Bucket_3: 104265
Non-critical_ROB_Stalls_Percent_4_Bucket_3: 7349
Critical_ROB_Stalls_Percent_4_Bucket_4: 55739
Non-critical_ROB_Stalls_Percent_4_Bucket_4: 604
Critical_ROB_Stalls_Percent_4_Bucket_5: 41861
Non-critical_ROB_Stalls_Percent_4_Bucket_5: 20
Critical_ROB_Stalls_Percent_4_Bucket_6: 71255
Non-critical_ROB_Stalls_Percent_4_Bucket_6: 2
Critical_ROB_Stalls_Percent_5_Bucket_0: 765903
Non-critical_ROB_Stalls_Percent_5_Bucket_0: 437781
Critical_ROB_Stalls_Percent_5_Bucket_1: 732496
Non-critical_ROB_Stalls_Percent_5_Bucket_1: 188370
Critical_ROB_Stalls_Percent_5_Bucket_2: 273204
Non-critical_ROB_Stalls_Percent_5_Bucket_2: 45435
Critical_ROB_Stalls_Percent_5_Bucket_3: 104847
Non-critical_ROB_Stalls_Percent_5_Bucket_3: 6767
Critical_ROB_Stalls_Percent_5_Bucket_4: 55739
Non-critical_ROB_Stalls_Percent_5_Bucket_4: 604
Critical_ROB_Stalls_Percent_5_Bucket_5: 41861
Non-critical_ROB_Stalls_Percent_5_Bucket_5: 20
Critical_ROB_Stalls_Percent_5_Bucket_6: 71256
Non-critical_ROB_Stalls_Percent_5_Bucket_6: 1
Critical_ROB_Stalls_Percent_6_Bucket_0: 856054
Non-critical_ROB_Stalls_Percent_6_Bucket_0: 347630
Critical_ROB_Stalls_Percent_6_Bucket_1: 770054
Non-critical_ROB_Stalls_Percent_6_Bucket_1: 150812
Critical_ROB_Stalls_Percent_6_Bucket_2: 280840
Non-critical_ROB_Stalls_Percent_6_Bucket_2: 37799
Critical_ROB_Stalls_Percent_6_Bucket_3: 105827
Non-critical_ROB_Stalls_Percent_6_Bucket_3: 5787
Critical_ROB_Stalls_Percent_6_Bucket_4: 55956
Non-critical_ROB_Stalls_Percent_6_Bucket_4: 387
Critical_ROB_Stalls_Percent_6_Bucket_5: 41881
Non-critical_ROB_Stalls_Percent_6_Bucket_5: 0
Critical_ROB_Stalls_Percent_6_Bucket_6: 71256
Non-critical_ROB_Stalls_Percent_6_Bucket_6: 1
Critical_ROB_Stalls_Percent_7_Bucket_0: 965942
Non-critical_ROB_Stalls_Percent_7_Bucket_0: 237742
Critical_ROB_Stalls_Percent_7_Bucket_1: 794883
Non-critical_ROB_Stalls_Percent_7_Bucket_1: 125983
Critical_ROB_Stalls_Percent_7_Bucket_2: 282398
Non-critical_ROB_Stalls_Percent_7_Bucket_2: 36241
Critical_ROB_Stalls_Percent_7_Bucket_3: 105827
Non-critical_ROB_Stalls_Percent_7_Bucket_3: 5787
Critical_ROB_Stalls_Percent_7_Bucket_4: 55956
Non-critical_ROB_Stalls_Percent_7_Bucket_4: 387
Critical_ROB_Stalls_Percent_7_Bucket_5: 41881
Non-critical_ROB_Stalls_Percent_7_Bucket_5: 0
Critical_ROB_Stalls_Percent_7_Bucket_6: 71256
Non-critical_ROB_Stalls_Percent_7_Bucket_6: 1
Critical_ROB_Stalls_Percent_8_Bucket_0: 1061602
Non-critical_ROB_Stalls_Percent_8_Bucket_0: 142082
Critical_ROB_Stalls_Percent_8_Bucket_1: 822247
Non-critical_ROB_Stalls_Percent_8_Bucket_1: 98619
Critical_ROB_Stalls_Percent_8_Bucket_2: 294143
Non-critical_ROB_Stalls_Percent_8_Bucket_2: 24496
Critical_ROB_Stalls_Percent_8_Bucket_3: 106116
Non-critical_ROB_Stalls_Percent_8_Bucket_3: 5498
Critical_ROB_Stalls_Percent_8_Bucket_4: 55956
Non-critical_ROB_Stalls_Percent_8_Bucket_4: 387
Critical_ROB_Stalls_Percent_8_Bucket_5: 41881
Non-critical_ROB_Stalls_Percent_8_Bucket_5: 0
Critical_ROB_Stalls_Percent_8_Bucket_6: 71256
Non-critical_ROB_Stalls_Percent_8_Bucket_6: 1
Average ROB occupancy Load Stall Begin: 66.9422
Average ROB occupancy Load Stall End: 76.1855
Min ROB occupancy Load Stall Begin: 2
Max ROB occupancy Load Stall Begin: 352
Min ROB occupancy Load Stall End: 2
Max ROB occupancy Load Stall End: 352
Average ROB occupancy Critical Load Stall Begin: -nan
Average ROB occupancy Critical Load Stall End: -nan
Min ROB occupancy Critical Load Stall Begin: 400
Max ROB occupancy Critical Load Stall Begin: 0
Min ROB occupancy Critical Load Stall End: 400
Max ROB occupancy Critical Load Stall End: 0
 ROB Load Stall Begin Bucket Count 0: 1515701
 ROB Load Stall End Bucket Count 0: 1203684
 ROB Critical Load Stall Begin Bucket Count 0: 0
 ROB Critical Load Stall End Bucket Count 0: 0
 ROB Load Stall Begin Bucket Count 1: 712345
 ROB Load Stall End Bucket Count 1: 920866
 ROB Critical Load Stall Begin Bucket Count 1: 0
 ROB Critical Load Stall End Bucket Count 1: 0
 ROB Load Stall Begin Bucket Count 2: 242105
 ROB Load Stall End Bucket Count 2: 318639
 ROB Critical Load Stall Begin Bucket Count 2: 0
 ROB Critical Load Stall End Bucket Count 2: 0
 ROB Load Stall Begin Bucket Count 3: 93190
 ROB Load Stall End Bucket Count 3: 111614
 ROB Critical Load Stall Begin Bucket Count 3: 0
 ROB Critical Load Stall End Bucket Count 3: 0
 ROB Load Stall Begin Bucket Count 4: 51101
 ROB Load Stall End Bucket Count 4: 56343
 ROB Critical Load Stall Begin Bucket Count 4: 0
 ROB Critical Load Stall End Bucket Count 4: 0
 ROB Load Stall Begin Bucket Count 5: 41902
 ROB Load Stall End Bucket Count 5: 41881
 ROB Critical Load Stall Begin Bucket Count 5: 0
 ROB Critical Load Stall End Bucket Count 5: 0
 ROB Load Stall Begin Bucket Count 6: 67940
 ROB Load Stall End Bucket Count 6: 71257
 ROB Critical Load Stall Begin Bucket Count 6: 0
 ROB Critical Load Stall End Bucket Count 6: 0
PIST Tag Read Accesses: 3650224
PIST Read Accesses: 1825112
PIST Tag Write Accesses: 3650224
PIST Write Accesses: 1825112
Criticality detector called times: 2724284
Max global_stall_cycles_count: 3757445
Threshold Modified: 1 times, factor: -1
Sturdy critical IP cache stats: 
 Unused entries: 0
CIC Tag Read Accesses: 0
CIC Read Accesses: 0
CIC Tag Write Accesses: 0
CIC Write Accesses: 0
Wobbly critical IP cache stats: 
 Unused entries: 128
CIC Tag Read Accesses: 82525136
CIC Read Accesses: 0
CIC Tag Write Accesses: 0
CIC Write Accesses: 0
ITLB TOTAL     ACCESS:   10641583  HIT:    9964127  MISS:     677456  HIT %:    93.6339  MISS %:    6.36612   MPKI: 13.5491
ITLB LOAD TRANSLATION ACCESS:    7964007  HIT:    7953627  MISS:      10380  HIT %:    99.8697  MISS %:   0.130336   MPKI: 0.2076
ITLB TRANSLATION FROM L1D PREFETCHER ACCESS:    2677576  HIT:    2010500  MISS:     667076  HIT %:    75.0866  MISS %:    24.9134   MPKI: 13.3415
ITLB PREFETCH  REQUESTED:          0  ISSUED:          0  USEFUL:     602454  USELESS:      64624
ITLB USEFUL LOAD PREFETCHES:     602454 PREFETCH ISSUED TO LOWER LEVEL:          0  ACCURACY: inf
ITLB TIMELY PREFETCHES:     602454 LATE PREFETCHES: 0 DROPPED PREFETCHES: 0
ITLB PREFETCHES SAME FILL-ORIGIN LEVEL: 0 DIFFERENT FILL-ORIGIN LEVEL: 0
ITLB AVERAGE MISS LATENCY: 9.02433 cycles
ITLB RQ	ACCESS:   16574310	FORWARD:          0	MERGED:    5892101	TO_CACHE:   10682209

DTLB TOTAL     ACCESS:    9975947  HIT:    9666350  MISS:     309597  HIT %:    96.8966  MISS %:    3.10343   MPKI: 6.19194
DTLB LOAD TRANSLATION ACCESS:    9975947  HIT:    9666350  MISS:     309597  HIT %:    96.8966  MISS %:    3.10343   MPKI: 6.19194
DTLB PREFETCH  REQUESTED:          0  ISSUED:          0  USEFUL:          0  USELESS:          0
DTLB USEFUL LOAD PREFETCHES:          0 PREFETCH ISSUED TO LOWER LEVEL:          0  ACCURACY: -nan
DTLB TIMELY PREFETCHES:          0 LATE PREFETCHES: 0 DROPPED PREFETCHES: 0
DTLB PREFETCHES SAME FILL-ORIGIN LEVEL: 0 DIFFERENT FILL-ORIGIN LEVEL: 0
DTLB AVERAGE MISS LATENCY: 9.03274 cycles
DTLB RQ	ACCESS:   14473624	FORWARD:          0	MERGED:    4472283	TO_CACHE:   10001341

STLB TOTAL     ACCESS:     993285  HIT:     993285  MISS:          0  HIT %:        100  MISS %:          0   MPKI: 0
STLB LOAD TRANSLATION ACCESS:     319977  HIT:     319977  MISS:          0  HIT %:        100  MISS %:          0   MPKI: 0
STLB TRANSLATION FROM L1D PREFETCHER ACCESS:     673308  HIT:     673308  MISS:          0  HIT %:        100  MISS %:          0   MPKI: 0
STLB PREFETCH  REQUESTED:          0  ISSUED:          0  USEFUL:          0  USELESS:          0
STLB USEFUL LOAD PREFETCHES:          0 PREFETCH ISSUED TO LOWER LEVEL:          0  ACCURACY: -nan
STLB TIMELY PREFETCHES:          0 LATE PREFETCHES: 0 DROPPED PREFETCHES: 0
STLB PREFETCHES SAME FILL-ORIGIN LEVEL: 0 DIFFERENT FILL-ORIGIN LEVEL: 0
STLB AVERAGE MISS LATENCY: -nan cycles
STLB RQ	ACCESS:     996151	FORWARD:          0	MERGED:       2866	TO_CACHE:     993285

STLB Hit, L1D data hit: 0
STLB Hit, L2C data hit: 0
STLB Hit, LLC data hit: 0
STLB Hit, LLC data miss: 0
STLB STLB hints to L2: 0
L1D TOTAL     ACCESS:   14464500  HIT:   14412809  MISS:      51691  HIT %:    99.6426  MISS %:   0.357365   MPKI: 1.03382
L1D LOAD      ACCESS:    7164265  HIT:    7121092  MISS:      43173  HIT %:    99.3974  MISS %:   0.602616   MPKI: 0.86346
L1D RFO       ACCESS:    7291137  HIT:    7282875  MISS:       8262  HIT %:    99.8867  MISS %:   0.113316   MPKI: 0.16524
L1D PREFETCH  ACCESS:       9098  HIT:       8842  MISS:        256  HIT %:    97.1862  MISS %:    2.81381   MPKI: 0.00512
L1D PREFETCH  REQUESTED:      18196  ISSUED:      18196  USEFUL:        126  USELESS:        145
L1D USEFUL LOAD PREFETCHES:        126 PREFETCH ISSUED TO LOWER LEVEL:        256  ACCURACY: 49.2188
L1D TIMELY PREFETCHES:        126 LATE PREFETCHES: 0 DROPPED PREFETCHES: 0
L1D PREFETCHES SAME FILL-ORIGIN LEVEL: 256 DIFFERENT FILL-ORIGIN LEVEL: 0
L1D AVERAGE MISS LATENCY: 15.017 cycles
L1D RQ	ACCESS:   11266492	FORWARD:          0	MERGED:    3958758	TO_CACHE:    7164348
L1D WQ	ACCESS:    7386980	FORWARD:     143386	MERGED:      77704	TO_CACHE:    7309276
L1D PQ	ACCESS:       9098	FORWARD:          0	MERGED:          0	TO_CACHE:       9098

L1D UNIQUE REGIONS ACCESSED: 0
L1D REGIONS CONFLICTS: 0
L1D Cross Page Prefetch Requests: 0
L1D Same Page Prefetch Requests: 215377
L1D ROI Sum of L1D PQ occupancy: 119575
L1D PREFETCHES PUSHED FROM L2C: 0
L1I TOTAL     ACCESS:   16527337  HIT:   11536856  MISS:    4990481  HIT %:    69.8047  MISS %:    30.1953   MPKI: 99.8096
L1I LOAD      ACCESS:    9344042  HIT:    9331341  MISS:      12701  HIT %:    99.8641  MISS %:   0.135926   MPKI: 0.25402
L1I PREFETCH  ACCESS:    7183295  HIT:    2205515  MISS:    4977780  HIT %:    30.7034  MISS %:    69.2966   MPKI: 99.5556
L1I PREFETCH  REQUESTED:    7419382  ISSUED:    7392714  USEFUL:    4207527  USELESS:     770268
L1I USEFUL LOAD PREFETCHES:    4207527 PREFETCH ISSUED TO LOWER LEVEL:    4984458  ACCURACY: 84.4129
L1I TIMELY PREFETCHES:    4207527 LATE PREFETCHES: 6677 DROPPED PREFETCHES: 0
L1I PREFETCHES SAME FILL-ORIGIN LEVEL: 4984458 DIFFERENT FILL-ORIGIN LEVEL: 0
L1I AVERAGE MISS LATENCY: 57594.7 cycles
L1I RQ	ACCESS:   13701538	FORWARD:          0	MERGED:    4357264	TO_CACHE:    9344274
L1I PQ	ACCESS:    7392714	FORWARD:          0	MERGED:     162678	TO_CACHE:    7230036

BTB TOTAL     ACCESS:    5283279  HIT:    4778912  MISS:     504367  HIT %:    90.4535  MISS %:    9.54648   MPKI: 10.0873
BTB BRANCH_DIRECT_JUMP	ACCESS:     491306  HIT:     474708  MISS:      16598
BTB BRANCH_INDIRECT	ACCESS:          0  HIT:          0  MISS:          0
BTB BRANCH_CONDITIONAL	ACCESS:    2373639  HIT:    2333540  MISS:      40099
BTB BRANCH_DIRECT_CALL	ACCESS:    1028408  HIT:    1005039  MISS:      23369
BTB BRANCH_INDIRECT_CALL	ACCESS:     180755  HIT:     144553  MISS:      36202
BTB BRANCH_RETURN	ACCESS:    1209171  HIT:     821072  MISS:     388099
BTB BRANCH_OTHER ACCESS:          0  HIT:          0  MISS:          0

L2C TOTAL     ACCESS:    5065436  HIT:    5065429  MISS:          7  HIT %:    99.9999  MISS %: 0.000138191   MPKI: 0.00014
L2C LOAD      ACCESS:      49197  HIT:      49194  MISS:          3  HIT %:    99.9939  MISS %: 0.00609793   MPKI: 6e-05
L2C DATA LOAD MPKI: 0
L2C INSTRUCTION LOAD MPKI: 6e-05
L2C RFO       ACCESS:       8262  HIT:       8261  MISS:          1  HIT %:    99.9879  MISS %:  0.0121036   MPKI: 2e-05
L2C PREFETCH  ACCESS:    4984713  HIT:    4984710  MISS:          3  HIT %:    99.9999  MISS %: 6.0184e-05   MPKI: 6e-05
L2C DATA PREFETCH MPKI: 6e-05
L2C INSTRUCTION PREFETCH MPKI: 0
L2C WRITEBACK ACCESS:      23264  HIT:      23264  MISS:          0  HIT %:        100  MISS %:          0   MPKI: 0
L2C PREFETCH  REQUESTED:          0  ISSUED:          0  USEFUL:          1  USELESS:          0
L2C USEFUL LOAD PREFETCHES:          1 PREFETCH ISSUED TO LOWER LEVEL:          3  ACCURACY: 33.3333
L2C TIMELY PREFETCHES:          1 LATE PREFETCHES: 0 DROPPED PREFETCHES: 0
L2C PREFETCHES SAME FILL-ORIGIN LEVEL: 0 DIFFERENT FILL-ORIGIN LEVEL: 0
L2C AVERAGE MISS LATENCY: 200 cycles
L2C RQ	ACCESS:      57459	FORWARD:          0	MERGED:          0	TO_CACHE:      57459
L2C WQ	ACCESS:      23264	FORWARD:          0	MERGED:          0	TO_CACHE:      23264
L2C PQ	ACCESS:    4984714	FORWARD:          0	MERGED:          0	TO_CACHE:    4984714

L2C Instructions Evicting Data 0
L2C Translations Evicting Data 0
L2C Data Evicting Data 0
L2C Instructions Evicting Instructions 0
L2C Translations Evicting Instructions 0
L2C Data Evicting Instructions 0
L2C Instructions Evicting Translations 0
L2C Translations Evicting Translations 0
L2C Data Evicting Translations 0
L2C Dense regions hint from L2: 0
PSCL5 PREFETCH  REQUESTED:          0  ISSUED:          0  USEFUL:          0  USELESS:          0
PSCL5 USEFUL LOAD PREFETCHES:          0 PREFETCH ISSUED TO LOWER LEVEL:          0  ACCURACY: -nan
PSCL5 TIMELY PREFETCHES:          0 LATE PREFETCHES: 0 DROPPED PREFETCHES: 0
PSCL5 PREFETCHES SAME FILL-ORIGIN LEVEL: 0 DIFFERENT FILL-ORIGIN LEVEL: 0

PSCL4 PREFETCH  REQUESTED:          0  ISSUED:          0  USEFUL:          0  USELESS:          0
PSCL4 USEFUL LOAD PREFETCHES:          0 PREFETCH ISSUED TO LOWER LEVEL:          0  ACCURACY: -nan
PSCL4 TIMELY PREFETCHES:          0 LATE PREFETCHES: 0 DROPPED PREFETCHES: 0
PSCL4 PREFETCHES SAME FILL-ORIGIN LEVEL: 0 DIFFERENT FILL-ORIGIN LEVEL: 0

PSCL3 PREFETCH  REQUESTED:          0  ISSUED:          0  USEFUL:          0  USELESS:          0
PSCL3 USEFUL LOAD PREFETCHES:          0 PREFETCH ISSUED TO LOWER LEVEL:          0  ACCURACY: -nan
PSCL3 TIMELY PREFETCHES:          0 LATE PREFETCHES: 0 DROPPED PREFETCHES: 0
PSCL3 PREFETCHES SAME FILL-ORIGIN LEVEL: 0 DIFFERENT FILL-ORIGIN LEVEL: 0

PSCL2 PREFETCH  REQUESTED:          0  ISSUED:          0  USEFUL:          0  USELESS:          0
PSCL2 USEFUL LOAD PREFETCHES:          0 PREFETCH ISSUED TO LOWER LEVEL:          0  ACCURACY: -nan
PSCL2 TIMELY PREFETCHES:          0 LATE PREFETCHES: 0 DROPPED PREFETCHES: 0
PSCL2 PREFETCHES SAME FILL-ORIGIN LEVEL: 0 DIFFERENT FILL-ORIGIN LEVEL: 0

LLC TOTAL     ACCESS:          7  HIT:          0  MISS:          7  HIT %:          0  MISS %:        100   MPKI: 0.00014
LLC LOAD      ACCESS:          3  HIT:          0  MISS:          3  HIT %:          0  MISS %:        100   MPKI: 6e-05
LLC RFO       ACCESS:          1  HIT:          0  MISS:          1  HIT %:          0  MISS %:        100   MPKI: 2e-05
LLC PREFETCH  ACCESS:          3  HIT:          0  MISS:          3  HIT %:          0  MISS %:        100   MPKI: 6e-05
LLC PREFETCH  REQUESTED:          0  ISSUED:          0  USEFUL:          0  USELESS:          0
LLC USEFUL LOAD PREFETCHES:          0 PREFETCH ISSUED TO LOWER LEVEL:          3  ACCURACY: 0
LLC TIMELY PREFETCHES:          0 LATE PREFETCHES: 0 DROPPED PREFETCHES: 0
LLC PREFETCHES SAME FILL-ORIGIN LEVEL: 0 DIFFERENT FILL-ORIGIN LEVEL: 0
LLC AVERAGE MISS LATENCY: 170 cycles
LLC RQ	ACCESS:          4	FORWARD:          0	MERGED:          0	TO_CACHE:          4
LLC PQ	ACCESS:          3	FORWARD:          0	MERGED:          0	TO_CACHE:          3

LLC Dense regions hint to LLC: 0

RAW hits: 1589979
Loads Generated: 12856472
Loads sent to L1D: 11266492
Stores Generated: 7386980
Stores sent to L1D: 7386980
Major fault: 0 Minor fault: 411
Allocated PAGES: 411
I-Shadow cache 408 bytes
Touched + WorthPF tables 6144 bytes 
MMA filter 174 bytes 
FNL filter 272 bytes 
TOTAL PREFETCHER STORAGE SIZE: 25174 bytes
CPU 0 L1I next line prefetcher final stats

stream: 
stream:times selected: 403430
stream:pref_filled: 348
stream:pref_useful: 75
stream:pref_late: 2
stream:misses: 0
stream:misses_by_poll: 0

CS: 
CS:times selected: 307689
CS:pref_filled: 256
CS:pref_useful: 12
CS:pref_late: 1
CS:misses: 2
CS:misses_by_poll: 0

CPLX: 
CPLX:times selected: 340934
CPLX:pref_filled: 4798
CPLX:pref_useful: 2422
CPLX:pref_late: 0
CPLX:misses: 2
CPLX:misses_by_poll: 0

NL_L1: 
NL:times selected: 272
NL:pref_filled: 3
NL:pref_useful: 0
NL:pref_late: 0
NL:misses: 0
NL:misses_by_poll: 0

total selections: 1052325
total_filled: 256
total_useful: 126
total_late: 3
total_polluted: 0
total_misses_after_warmup: 1946
conflicts: 134095
Degree Incremented Times: 866
Degree Decremented Times: 6295456

L1 IP Table Write Accesses: 151451
L1 IP Table Read Accesses: 17356
L1 RST Write Accesses: 16302
L1 RST Read Accesses: 32604
L1 CSPT Write Accesses: 16302
L1 CSPT Read Accesses: 62323
L1 RR Filter Tag Write Accesses: 9098
L1 RR Filter Tag Read Accesses: 2253332
L1 IP Table Tag Write Accesses: 287094
L1 IP Table Tag Read Accesses: 287094
L1 RST Tag Write Accesses: 0
L1 RST Tag Read Accesses: 168608
L1 RR Filter Write Accesses: 0
L1 RR Filter Read Accesses: 72889
test: 23793

DRAM Statistics
 CHANNEL 0
 RQ ROW_BUFFER_HIT:          0  ROW_BUFFER_MISS:          7
 DBUS_CONGESTED:          0
 WQ ROW_BUFFER_HIT:          0  ROW_BUFFER_MISS:          0  FULL:          0

 AVG_CONGESTED_CYCLE: -
 All warmup complete: 2
Channel 0 Bank busy for read cycles: 0
Channel 0 Bank busy for write cycles: 0
Channel 0
Rank 0
0banks busy for read cycles: 58548765
0banks busy for write cycles: 0
1banks busy for read cycles: 784
1banks busy for write cycles: 0
2banks busy for read cycles: 133
2banks busy for write cycles: 0
3banks busy for read cycles: 0
3banks busy for write cycles: 0
4banks busy for read cycles: 0
4banks busy for write cycles: 0
5banks busy for read cycles: 0
5banks busy for write cycles: 0
6banks busy for read cycles: 0
6banks busy for write cycles: 0
7banks busy for read cycles: 0
7banks busy for write cycles: 0
8banks busy for read cycles: 0
8banks busy for write cycles: 0

CPU 0 Branch Prediction Accuracy: 99.9091% MPKI: 0.1547 Average ROB Occupancy at Mispredict: 56.6765
Branch types
NOT_BRANCH: 41494847 82.9897%
BRANCH_DIRECT_JUMP: 491306 0.982612%
BRANCH_INDIRECT: 0 0%
BRANCH_CONDITIONAL: 5595233 11.1905%
BRANCH_DIRECT_CALL: 1028408 2.05682%
BRANCH_INDIRECT_CALL: 180755 0.36151%
BRANCH_RETURN: 1209171 2.41834%
BRANCH_OTHER: 0 0%

DRAM PAGES: 1048576
Allocated PAGES: 411
