
*** ChampSim Multicore Out-of-Order Simulator ***

Warmup Instructions: 50000000
Simulation Instructions: 50000000
Number of CPUs: 1
LLC sets: 2048
LLC ways: 16
Off-chip DRAM Size: 4096 MB Channels: 1 Width: 64-bit Data Rate: 6400 MT/s
CPU 0 runs ../IPC-traces//server_021.champsimtrace.xz
.xz
NUM_OF_IPS_IN_CRITICAL_IP_TRAINING: 64
NUM_OF_CRITICAL_IP_TRAINING_TABLE_WAYS: 2
NUM_OF_CRITICAL_IP_TRAINING_TABLE_SETS: 32
WOBBLY_CRITICAL_IP_CACHE_SETS: 32
WOBBLY_CRITICAL_IP_CACHE_WAYS: 4
BTB has LRU replacement policy
ITLB has LRU replacement policy
DTLB has LRU replacement policy
STLB has LRU replacement policy
CPU 0 L1I next line prefetcher
L1I has LRU replacement policy
IP Table Entries: 64
L1D has LRU replacement policy
Initialize SRRIP state for L2C
Initialize DRRIP state for LLC
Heartbeat CPU 0 instructions: 10000000 cycles: 3148867 heartbeat IPC: 3.17575 cumulative IPC: 3.17575 (Simulation time: 0 hr 5 min 45 sec) 
Heartbeat CPU 0 instructions: 20000000 cycles: 6290469 heartbeat IPC: 3.18309 cumulative IPC: 3.17941 (Simulation time: 0 hr 10 min 34 sec) 
Heartbeat CPU 0 instructions: 30000000 cycles: 9468773 heartbeat IPC: 3.14633 cumulative IPC: 3.16831 (Simulation time: 0 hr 14 min 29 sec) 
Heartbeat CPU 0 instructions: 40000002 cycles: 12602028 heartbeat IPC: 3.19157 cumulative IPC: 3.17409 (Simulation time: 0 hr 18 min 5 sec) 
Heartbeat CPU 0 instructions: 50000000 cycles: 15766011 heartbeat IPC: 3.16057 cumulative IPC: 3.17138 (Simulation time: 0 hr 21 min 27 sec) 

Warmup complete CPU 0 instructions: 50000004 cycles: 15766012 (Simulation time: 0 hr 21 min 27 sec) 

% increase in all ip prefetch 470.668
% increase in all ip prefetch 6.65985
% increase in all ip prefetch 0.657369
Heartbeat CPU 0 instructions: 60000001 cycles: 34150849 heartbeat IPC: 0.543927 cumulative IPC: 0.543926 (Simulation time: 0 hr 25 min 52 sec) 
Heartbeat CPU 0 instructions: 70000000 cycles: 51999750 heartbeat IPC: 0.560259 cumulative IPC: 0.551972 (Simulation time: 0 hr 30 min 18 sec) 
Heartbeat CPU 0 instructions: 80000003 cycles: 69735063 heartbeat IPC: 0.563847 cumulative IPC: 0.555874 (Simulation time: 0 hr 34 min 22 sec) 
Heartbeat CPU 0 instructions: 90000000 cycles: 87522177 heartbeat IPC: 0.562205 cumulative IPC: 0.557443 (Simulation time: 0 hr 41 min 45 sec) 
Heartbeat CPU 0 instructions: 100000002 cycles: 105282747 heartbeat IPC: 0.563045 cumulative IPC: 0.558555 (Simulation time: 0 hr 48 min 37 sec) 
Finished CPU 0 instructions: 50000002 cycles: 89516736 cumulative IPC: 0.558555 (Simulation time: 0 hr 48 min 37 sec) 

ChampSim completed all CPUs

Region of Interest Statistics

CPU 0 cumulative IPC: 0.558555 instructions: 50000002 cycles: 89516736

CPU 0 Average Load ROB stall cycles: 2.76406e+07
CPU 0 Fraction of times ROB stalled by Loads: 45.4385
CPU 0 Percentage of Load stall cycles in Total stall cycles: 2.73802e+08
Issued all: 48051559
Issued LT all: 42749606
rob_not_full_when_issued_lt_all: 16846110
Issued LT one: 36927216
rob_not_full_when_issued_lt_one: 12811671
 Total stall cycles: 72128165
 Total load stall cycles: 197488558618829
CPU 0 NUM of IPS identified critical: 0
CPU 0 Num of Load IPs stalling ROB: 4788
Threshold modification factor: -2
Max PIST entries: 64
Min PIST entries: 0
Avg PIST entries: 32
Trouble in retire width: 0.797877
MaC = Marked as critical.
lt_50_percent_before_Mac: 0
gt_90_percent_before_Mac: 0
gt_75_percent_before_Mac: 0
gt_50_percent_before_Mac: 0
stall_proportion_bin_same_before_after: 0
stall_proportion_bin_lower_before_after: 0
stall_proportion_bin_upper_before_after: 0
average_stall_proportion_before: -nan
average_stall_proportion_after: -nan
Critical IP stalls, total frequency: 0
Non-critical IP stalls, total frequency: 3246527
Total Freq all stalling IPs: 3246527
stat_90_percent_critical_ip_stalls_freq: 2921904
stat_90_percent_non_critical_ip_stalls_freq: 324623
Critical_IP_ROB_Stalls_Bucket_0: 0
Non-critical_IP_ROB_Stalls_Bucket_0: 509329
Critical_IP_ROB_Stalls_Bucket_1: 0
Non-critical_IP_ROB_Stalls_Bucket_1: 617397
Critical_IP_ROB_Stalls_Bucket_2: 0
Non-critical_IP_ROB_Stalls_Bucket_2: 431786
Critical_IP_ROB_Stalls_Bucket_3: 0
Non-critical_IP_ROB_Stalls_Bucket_3: 260345
Critical_IP_ROB_Stalls_Bucket_4: 0
Non-critical_IP_ROB_Stalls_Bucket_4: 169800
Critical_IP_ROB_Stalls_Bucket_5: 0
Non-critical_IP_ROB_Stalls_Bucket_5: 153725
Critical_IP_ROB_Stalls_Bucket_6: 0
Non-critical_IP_ROB_Stalls_Bucket_6: 1104145
0 => IPs accounting for >50 percent of stalls, 1 => 55, 2 => 60, 3 => 65 and so on till 90.
percent50: 50.2084 num IPs:  12
percent55: 55.0033 num IPs: 30
percent60: 60.1062 num IPs: 62
percent65: 65.0384 num IPs: 108
percent70: 70.0243 num IPs: 175
percent75: 75.0483 num IPs: 243
percent80: 80.0084 num IPs: 312
percent85: 85.0364 num IPs: 389
percent90: 90.0009 num IPs: 485
Critical_ROB_Stalls_Percent_0_Bucket_0: 52741
Non-critical_ROB_Stalls_Percent_0_Bucket_0: 456588
Critical_ROB_Stalls_Percent_0_Bucket_1: 113392
Non-critical_ROB_Stalls_Percent_0_Bucket_1: 504005
Critical_ROB_Stalls_Percent_0_Bucket_2: 122789
Non-critical_ROB_Stalls_Percent_0_Bucket_2: 308997
Critical_ROB_Stalls_Percent_0_Bucket_3: 136484
Non-critical_ROB_Stalls_Percent_0_Bucket_3: 123861
Critical_ROB_Stalls_Percent_0_Bucket_4: 112879
Non-critical_ROB_Stalls_Percent_0_Bucket_4: 56921
Critical_ROB_Stalls_Percent_0_Bucket_5: 106590
Non-critical_ROB_Stalls_Percent_0_Bucket_5: 47135
Critical_ROB_Stalls_Percent_0_Bucket_6: 985153
Non-critical_ROB_Stalls_Percent_0_Bucket_6: 118992
Critical_ROB_Stalls_Percent_1_Bucket_0: 128018
Non-critical_ROB_Stalls_Percent_1_Bucket_0: 381311
Critical_ROB_Stalls_Percent_1_Bucket_1: 157253
Non-critical_ROB_Stalls_Percent_1_Bucket_1: 460144
Critical_ROB_Stalls_Percent_1_Bucket_2: 142014
Non-critical_ROB_Stalls_Percent_1_Bucket_2: 289772
Critical_ROB_Stalls_Percent_1_Bucket_3: 143496
Non-critical_ROB_Stalls_Percent_1_Bucket_3: 116849
Critical_ROB_Stalls_Percent_1_Bucket_4: 115901
Non-critical_ROB_Stalls_Percent_1_Bucket_4: 53899
Critical_ROB_Stalls_Percent_1_Bucket_5: 109700
Non-critical_ROB_Stalls_Percent_1_Bucket_5: 44025
Critical_ROB_Stalls_Percent_1_Bucket_6: 989314
Non-critical_ROB_Stalls_Percent_1_Bucket_6: 114831
Critical_ROB_Stalls_Percent_2_Bucket_0: 173182
Non-critical_ROB_Stalls_Percent_2_Bucket_0: 336147
Critical_ROB_Stalls_Percent_2_Bucket_1: 196160
Non-critical_ROB_Stalls_Percent_2_Bucket_1: 421237
Critical_ROB_Stalls_Percent_2_Bucket_2: 176116
Non-critical_ROB_Stalls_Percent_2_Bucket_2: 255670
Critical_ROB_Stalls_Percent_2_Bucket_3: 150196
Non-critical_ROB_Stalls_Percent_2_Bucket_3: 110149
Critical_ROB_Stalls_Percent_2_Bucket_4: 122004
Non-critical_ROB_Stalls_Percent_2_Bucket_4: 47796
Critical_ROB_Stalls_Percent_2_Bucket_5: 118950
Non-critical_ROB_Stalls_Percent_2_Bucket_5: 34775
Critical_ROB_Stalls_Percent_2_Bucket_6: 1014756
Non-critical_ROB_Stalls_Percent_2_Bucket_6: 89389
Critical_ROB_Stalls_Percent_3_Bucket_0: 216525
Non-critical_ROB_Stalls_Percent_3_Bucket_0: 292804
Critical_ROB_Stalls_Percent_3_Bucket_1: 240209
Non-critical_ROB_Stalls_Percent_3_Bucket_1: 377188
Critical_ROB_Stalls_Percent_3_Bucket_2: 206324
Non-critical_ROB_Stalls_Percent_3_Bucket_2: 225462
Critical_ROB_Stalls_Percent_3_Bucket_3: 159308
Non-critical_ROB_Stalls_Percent_3_Bucket_3: 101037
Critical_ROB_Stalls_Percent_3_Bucket_4: 127394
Non-critical_ROB_Stalls_Percent_3_Bucket_4: 42406
Critical_ROB_Stalls_Percent_3_Bucket_5: 125016
Non-critical_ROB_Stalls_Percent_3_Bucket_5: 28709
Critical_ROB_Stalls_Percent_3_Bucket_6: 1036714
Non-critical_ROB_Stalls_Percent_3_Bucket_6: 67431
Critical_ROB_Stalls_Percent_4_Bucket_0: 235018
Non-critical_ROB_Stalls_Percent_4_Bucket_0: 274311
Critical_ROB_Stalls_Percent_4_Bucket_1: 303496
Non-critical_ROB_Stalls_Percent_4_Bucket_1: 313901
Critical_ROB_Stalls_Percent_4_Bucket_2: 240891
Non-critical_ROB_Stalls_Percent_4_Bucket_2: 190895
Critical_ROB_Stalls_Percent_4_Bucket_3: 181960
Non-critical_ROB_Stalls_Percent_4_Bucket_3: 78385
Critical_ROB_Stalls_Percent_4_Bucket_4: 140156
Non-critical_ROB_Stalls_Percent_4_Bucket_4: 29644
Critical_ROB_Stalls_Percent_4_Bucket_5: 130925
Non-critical_ROB_Stalls_Percent_4_Bucket_5: 22800
Critical_ROB_Stalls_Percent_4_Bucket_6: 1040912
Non-critical_ROB_Stalls_Percent_4_Bucket_6: 63233
Critical_ROB_Stalls_Percent_5_Bucket_0: 262987
Non-critical_ROB_Stalls_Percent_5_Bucket_0: 246342
Critical_ROB_Stalls_Percent_5_Bucket_1: 355697
Non-critical_ROB_Stalls_Percent_5_Bucket_1: 261700
Critical_ROB_Stalls_Percent_5_Bucket_2: 287107
Non-critical_ROB_Stalls_Percent_5_Bucket_2: 144679
Critical_ROB_Stalls_Percent_5_Bucket_3: 200889
Non-critical_ROB_Stalls_Percent_5_Bucket_3: 59456
Critical_ROB_Stalls_Percent_5_Bucket_4: 148278
Non-critical_ROB_Stalls_Percent_5_Bucket_4: 21522
Critical_ROB_Stalls_Percent_5_Bucket_5: 135178
Non-critical_ROB_Stalls_Percent_5_Bucket_5: 18547
Critical_ROB_Stalls_Percent_5_Bucket_6: 1046326
Non-critical_ROB_Stalls_Percent_5_Bucket_6: 57819
Critical_ROB_Stalls_Percent_6_Bucket_0: 315333
Non-critical_ROB_Stalls_Percent_6_Bucket_0: 193996
Critical_ROB_Stalls_Percent_6_Bucket_1: 420256
Non-critical_ROB_Stalls_Percent_6_Bucket_1: 197141
Critical_ROB_Stalls_Percent_6_Bucket_2: 306917
Non-critical_ROB_Stalls_Percent_6_Bucket_2: 124869
Critical_ROB_Stalls_Percent_6_Bucket_3: 209577
Non-critical_ROB_Stalls_Percent_6_Bucket_3: 50768
Critical_ROB_Stalls_Percent_6_Bucket_4: 151661
Non-critical_ROB_Stalls_Percent_6_Bucket_4: 18139
Critical_ROB_Stalls_Percent_6_Bucket_5: 138672
Non-critical_ROB_Stalls_Percent_6_Bucket_5: 15053
Critical_ROB_Stalls_Percent_6_Bucket_6: 1055078
Non-critical_ROB_Stalls_Percent_6_Bucket_6: 49067
Critical_ROB_Stalls_Percent_7_Bucket_0: 355222
Non-critical_ROB_Stalls_Percent_7_Bucket_0: 154107
Critical_ROB_Stalls_Percent_7_Bucket_1: 461334
Non-critical_ROB_Stalls_Percent_7_Bucket_1: 156063
Critical_ROB_Stalls_Percent_7_Bucket_2: 357168
Non-critical_ROB_Stalls_Percent_7_Bucket_2: 74618
Critical_ROB_Stalls_Percent_7_Bucket_3: 226410
Non-critical_ROB_Stalls_Percent_7_Bucket_3: 33935
Critical_ROB_Stalls_Percent_7_Bucket_4: 157032
Non-critical_ROB_Stalls_Percent_7_Bucket_4: 12768
Critical_ROB_Stalls_Percent_7_Bucket_5: 140348
Non-critical_ROB_Stalls_Percent_7_Bucket_5: 13377
Critical_ROB_Stalls_Percent_7_Bucket_6: 1063214
Non-critical_ROB_Stalls_Percent_7_Bucket_6: 40931
Critical_ROB_Stalls_Percent_8_Bucket_0: 407762
Non-critical_ROB_Stalls_Percent_8_Bucket_0: 101567
Critical_ROB_Stalls_Percent_8_Bucket_1: 518999
Non-critical_ROB_Stalls_Percent_8_Bucket_1: 98398
Critical_ROB_Stalls_Percent_8_Bucket_2: 379255
Non-critical_ROB_Stalls_Percent_8_Bucket_2: 52531
Critical_ROB_Stalls_Percent_8_Bucket_3: 233069
Non-critical_ROB_Stalls_Percent_8_Bucket_3: 27276
Critical_ROB_Stalls_Percent_8_Bucket_4: 160001
Non-critical_ROB_Stalls_Percent_8_Bucket_4: 9799
Critical_ROB_Stalls_Percent_8_Bucket_5: 146488
Non-critical_ROB_Stalls_Percent_8_Bucket_5: 7237
Critical_ROB_Stalls_Percent_8_Bucket_6: 1076330
Non-critical_ROB_Stalls_Percent_8_Bucket_6: 27815
Average ROB occupancy Load Stall Begin: 184.039
Average ROB occupancy Load Stall End: 192.388
Min ROB occupancy Load Stall Begin: 1
Max ROB occupancy Load Stall Begin: 352
Min ROB occupancy Load Stall End: 1
Max ROB occupancy Load Stall End: 352
Average ROB occupancy Critical Load Stall Begin: -nan
Average ROB occupancy Critical Load Stall End: -nan
Min ROB occupancy Critical Load Stall Begin: 400
Max ROB occupancy Critical Load Stall Begin: 0
Min ROB occupancy Critical Load Stall End: 400
Max ROB occupancy Critical Load Stall End: 0
 ROB Load Stall Begin Bucket Count 0: 715909
 ROB Load Stall End Bucket Count 0: 509329
 ROB Critical Load Stall Begin Bucket Count 0: 0
 ROB Critical Load Stall End Bucket Count 0: 0
 ROB Load Stall Begin Bucket Count 1: 543714
 ROB Load Stall End Bucket Count 1: 617397
 ROB Critical Load Stall Begin Bucket Count 1: 0
 ROB Critical Load Stall End Bucket Count 1: 0
 ROB Load Stall Begin Bucket Count 2: 377693
 ROB Load Stall End Bucket Count 2: 431786
 ROB Critical Load Stall Begin Bucket Count 2: 0
 ROB Critical Load Stall End Bucket Count 2: 0
 ROB Load Stall Begin Bucket Count 3: 221197
 ROB Load Stall End Bucket Count 3: 260345
 ROB Critical Load Stall Begin Bucket Count 3: 0
 ROB Critical Load Stall End Bucket Count 3: 0
 ROB Load Stall Begin Bucket Count 4: 157776
 ROB Load Stall End Bucket Count 4: 169800
 ROB Critical Load Stall Begin Bucket Count 4: 0
 ROB Critical Load Stall End Bucket Count 4: 0
 ROB Load Stall Begin Bucket Count 5: 154491
 ROB Load Stall End Bucket Count 5: 153725
 ROB Critical Load Stall Begin Bucket Count 5: 0
 ROB Critical Load Stall End Bucket Count 5: 0
 ROB Load Stall Begin Bucket Count 6: 1075747
 ROB Load Stall End Bucket Count 6: 1104145
 ROB Critical Load Stall Begin Bucket Count 6: 0
 ROB Critical Load Stall End Bucket Count 6: 0
PIST Tag Read Accesses: 3077098
PIST Read Accesses: 1538549
PIST Tag Write Accesses: 3077098
PIST Write Accesses: 1538549
Criticality detector called times: 1761892
Max global_stall_cycles_count: 3786975
Threshold Modified: 2 times, factor: -2
Sturdy critical IP cache stats: 
 Unused entries: 0
CIC Tag Read Accesses: 0
CIC Read Accesses: 0
CIC Tag Write Accesses: 0
CIC Write Accesses: 0
Wobbly critical IP cache stats: 
 Unused entries: 114
CIC Tag Read Accesses: 90905350
CIC Read Accesses: 0
CIC Tag Write Accesses: 300
CIC Write Accesses: 0
ITLB TOTAL     ACCESS:   10326691  HIT:    9835558  MISS:     491133  HIT %:     95.244  MISS %:    4.75596   MPKI: 9.82266
ITLB LOAD TRANSLATION ACCESS:    8398336  HIT:    8390297  MISS:       8039  HIT %:    99.9043  MISS %:  0.0957213   MPKI: 0.16078
ITLB TRANSLATION FROM L1D PREFETCHER ACCESS:    1928355  HIT:    1445261  MISS:     483094  HIT %:    74.9479  MISS %:    25.0521   MPKI: 9.66188
ITLB PREFETCH  REQUESTED:          0  ISSUED:          0  USEFUL:     429877  USELESS:      53220
ITLB USEFUL LOAD PREFETCHES:     429877 PREFETCH ISSUED TO LOWER LEVEL:          0  ACCURACY: inf
ITLB TIMELY PREFETCHES:     429877 LATE PREFETCHES: 145 DROPPED PREFETCHES: 0
ITLB PREFETCHES SAME FILL-ORIGIN LEVEL: 0 DIFFERENT FILL-ORIGIN LEVEL: 0
ITLB AVERAGE MISS LATENCY: 17927.4 cycles
ITLB RQ	ACCESS:   14875498	FORWARD:          0	MERGED:    4499664	TO_CACHE:   10375834

DTLB TOTAL     ACCESS:   10886285  HIT:   10482374  MISS:     403911  HIT %:    96.2897  MISS %:    3.71027   MPKI: 8.07822
DTLB LOAD TRANSLATION ACCESS:   10886285  HIT:   10482374  MISS:     403911  HIT %:    96.2897  MISS %:    3.71027   MPKI: 8.07822
DTLB PREFETCH  REQUESTED:          0  ISSUED:          0  USEFUL:          0  USELESS:          0
DTLB USEFUL LOAD PREFETCHES:          0 PREFETCH ISSUED TO LOWER LEVEL:          0  ACCURACY: -nan
DTLB TIMELY PREFETCHES:          0 LATE PREFETCHES: 0 DROPPED PREFETCHES: 0
DTLB PREFETCHES SAME FILL-ORIGIN LEVEL: 0 DIFFERENT FILL-ORIGIN LEVEL: 0
DTLB AVERAGE MISS LATENCY: 16.5448 cycles
DTLB RQ	ACCESS:   16207810	FORWARD:          0	MERGED:    5236813	TO_CACHE:   10970997

STLB TOTAL     ACCESS:    1450162  HIT:    1429834  MISS:      20328  HIT %:    98.5982  MISS %:    1.40177   MPKI: 0.40656
STLB LOAD TRANSLATION ACCESS:     411805  HIT:     391875  MISS:      19930  HIT %:    95.1603  MISS %:    4.83967   MPKI: 0.3986
STLB TRANSLATION FROM L1D PREFETCHER ACCESS:    1038357  HIT:    1037959  MISS:        398  HIT %:    99.9617  MISS %:  0.0383298   MPKI: 0.00796
STLB PREFETCH  REQUESTED:          0  ISSUED:          0  USEFUL:        181  USELESS:        205
STLB USEFUL LOAD PREFETCHES:        181 PREFETCH ISSUED TO LOWER LEVEL:          0  ACCURACY: inf
STLB TIMELY PREFETCHES:        181 LATE PREFETCHES: 0 DROPPED PREFETCHES: 0
STLB PREFETCHES SAME FILL-ORIGIN LEVEL: 0 DIFFERENT FILL-ORIGIN LEVEL: 0
STLB AVERAGE MISS LATENCY: 155.504 cycles
STLB RQ	ACCESS:    1557782	FORWARD:          0	MERGED:     107620	TO_CACHE:    1450162

STLB Hit, L1D data hit: 0
STLB Hit, L2C data hit: 0
STLB Hit, LLC data hit: 0
STLB Hit, LLC data miss: 0
STLB STLB hints to L2: 0
L1D TOTAL     ACCESS:   14355239  HIT:   12481524  MISS:    1873715  HIT %:    86.9475  MISS %:    13.0525   MPKI: 37.4743
L1D LOAD      ACCESS:    7398277  HIT:    6890255  MISS:     508022  HIT %:    93.1332  MISS %:    6.86676   MPKI: 10.1604
L1D RFO       ACCESS:    6306403  HIT:    5314534  MISS:     991869  HIT %:     84.272  MISS %:     15.728   MPKI: 19.8374
L1D PREFETCH  ACCESS:     650559  HIT:     276735  MISS:     373824  HIT %:     42.538  MISS %:     57.462   MPKI: 7.47648
L1D PREFETCH  REQUESTED:    1328437  ISSUED:    1325476  USEFUL:     318148  USELESS:      55694
L1D USEFUL LOAD PREFETCHES:     318148 PREFETCH ISSUED TO LOWER LEVEL:     384048  ACCURACY: 82.8407
L1D TIMELY PREFETCHES:     318148 LATE PREFETCHES: 10222 DROPPED PREFETCHES: 0
L1D PREFETCHES SAME FILL-ORIGIN LEVEL: 384048 DIFFERENT FILL-ORIGIN LEVEL: 0
L1D AVERAGE MISS LATENCY: 297584 cycles
L1D RQ	ACCESS:   11079342	FORWARD:          0	MERGED:    3518754	TO_CACHE:    7437558
L1D WQ	ACCESS:    8864293	FORWARD:     123030	MERGED:      94041	TO_CACHE:    8770252
L1D PQ	ACCESS:     662738	FORWARD:          0	MERGED:          0	TO_CACHE:     662738

L1D UNIQUE REGIONS ACCESSED: 0
L1D REGIONS CONFLICTS: 0
L1D Cross Page Prefetch Requests: 0
L1D Same Page Prefetch Requests: 1590741
L1D ROI Sum of L1D PQ occupancy: 10484417
L1D PREFETCHES PUSHED FROM L2C: 0
L1I TOTAL     ACCESS:   14799768  HIT:   11618536  MISS:    3181232  HIT %:    78.5049  MISS %:    21.4951   MPKI: 63.6246
L1I LOAD      ACCESS:    9804729  HIT:    9786751  MISS:      17978  HIT %:    99.8166  MISS %:    0.18336   MPKI: 0.35956
L1I PREFETCH  ACCESS:    4995039  HIT:    1831785  MISS:    3163254  HIT %:    36.6721  MISS %:    63.3279   MPKI: 63.2651
L1I PREFETCH  REQUESTED:    5251697  ISSUED:    5245294  USEFUL:    2637096  USELESS:     526173
L1I USEFUL LOAD PREFETCHES:    2637096 PREFETCH ISSUED TO LOWER LEVEL:    3169801  ACCURACY: 83.1944
L1I TIMELY PREFETCHES:    2637096 LATE PREFETCHES: 6507 DROPPED PREFETCHES: 0
L1I PREFETCHES SAME FILL-ORIGIN LEVEL: 3169801 DIFFERENT FILL-ORIGIN LEVEL: 0
L1I AVERAGE MISS LATENCY: 129193 cycles
L1I RQ	ACCESS:   14097550	FORWARD:          0	MERGED:    4289032	TO_CACHE:    9808518
L1I PQ	ACCESS:    5245294	FORWARD:          0	MERGED:     178314	TO_CACHE:    5066980

BTB TOTAL     ACCESS:    5300075  HIT:    5041527  MISS:     258548  HIT %:    95.1218  MISS %:     4.8782   MPKI: 5.17096
BTB BRANCH_DIRECT_JUMP	ACCESS:     445212  HIT:     443383  MISS:       1829
BTB BRANCH_INDIRECT	ACCESS:      50481  HIT:      50386  MISS:         95
BTB BRANCH_CONDITIONAL	ACCESS:    2966952  HIT:    2961198  MISS:       5754
BTB BRANCH_DIRECT_CALL	ACCESS:     758223  HIT:     754416  MISS:       3807
BTB BRANCH_INDIRECT_CALL	ACCESS:     160492  HIT:     130806  MISS:      29686
BTB BRANCH_RETURN	ACCESS:     918715  HIT:     701338  MISS:     217377
BTB BRANCH_OTHER ACCESS:          0  HIT:          0  MISS:          0

L2C TOTAL     ACCESS:    6287205  HIT:    4442720  MISS:    1844485  HIT %:    70.6629  MISS %:    29.3371   MPKI: 36.8897
L2C LOAD      ACCESS:     509258  HIT:     175498  MISS:     333760  HIT %:    34.4615  MISS %:    65.5385   MPKI: 6.6752
L2C DATA LOAD MPKI: 6.594
L2C INSTRUCTION LOAD MPKI: 0.0812
L2C RFO       ACCESS:     991866  HIT:      39370  MISS:     952496  HIT %:    3.96929  MISS %:    96.0307   MPKI: 19.0499
L2C PREFETCH  ACCESS:    3595864  HIT:    3087542  MISS:     508322  HIT %:    85.8637  MISS %:    14.1363   MPKI: 10.1664
L2C DATA PREFETCH MPKI: 7.03558
L2C INSTRUCTION PREFETCH MPKI: 3.13086
L2C WRITEBACK ACCESS:    1168355  HIT:    1127681  MISS:      40674  HIT %:    96.5187  MISS %:     3.4813   MPKI: 0.81348
L2C LOAD TRANSLATION ACCESS:      21299  HIT:      12512  MISS:       8787  HIT %:    58.7445  MISS %:    41.2555   MPKI: 0.17574
L2C TRANSLATION FROM L1D PREFETCHER ACCESS:        563  HIT:        117  MISS:        446  HIT %:    20.7815  MISS %:    79.2185   MPKI: 0.00892
L2C PREFETCH  REQUESTED:      68601  ISSUED:      68494  USEFUL:       8470  USELESS:     500637
L2C USEFUL LOAD PREFETCHES:       8470 PREFETCH ISSUED TO LOWER LEVEL:     508864  ACCURACY: 1.66449
L2C TIMELY PREFETCHES:       8470 LATE PREFETCHES: 542 DROPPED PREFETCHES: 0
L2C PREFETCHES SAME FILL-ORIGIN LEVEL: 21712 DIFFERENT FILL-ORIGIN LEVEL: 0
L2C AVERAGE MISS LATENCY: 163.28 cycles
L2C RQ	ACCESS:    1523002	FORWARD:          0	MERGED:          0	TO_CACHE:    1522986
L2C WQ	ACCESS:    1168356	FORWARD:         16	MERGED:          0	TO_CACHE:    1168356
L2C PQ	ACCESS:    3622302	FORWARD:          0	MERGED:      22261	TO_CACHE:    3600041

L2C Instructions Evicting Data 147596
L2C Translations Evicting Data 8349
L2C Data Evicting Data 1481640
L2C Instructions Evicting Instructions 12205
L2C Translations Evicting Instructions 851
L2C Data Evicting Instructions 144110
L2C Instructions Evicting Translations 802
L2C Translations Evicting Translations 33
L2C Data Evicting Translations 8225
L2C Dense regions hint from L2: 0
PSCL5 TOTAL     ACCESS:      20328  HIT:      20328  MISS:          0  HIT %:        100  MISS %:          0   MPKI: 0
PSCL5 LOAD TRANSLATION ACCESS:      19930  HIT:      19930  MISS:          0  HIT %:        100  MISS %:          0   MPKI: 0
PSCL5 TRANSLATION FROM L1D PREFETCHER ACCESS:        398  HIT:        398  MISS:          0  HIT %:        100  MISS %:          0   MPKI: 0
PSCL5 PREFETCH  REQUESTED:          0  ISSUED:          0  USEFUL:          0  USELESS:          0
PSCL5 USEFUL LOAD PREFETCHES:          0 PREFETCH ISSUED TO LOWER LEVEL:          0  ACCURACY: -nan
PSCL5 TIMELY PREFETCHES:          0 LATE PREFETCHES: 0 DROPPED PREFETCHES: 0
PSCL5 PREFETCHES SAME FILL-ORIGIN LEVEL: 0 DIFFERENT FILL-ORIGIN LEVEL: 0

PSCL4 TOTAL     ACCESS:      19571  HIT:      19529  MISS:         42  HIT %:    99.7854  MISS %:   0.214603   MPKI: 0.00084
PSCL4 LOAD TRANSLATION ACCESS:      19185  HIT:      19143  MISS:         42  HIT %:    99.7811  MISS %:   0.218921   MPKI: 0.00084
PSCL4 TRANSLATION FROM L1D PREFETCHER ACCESS:        386  HIT:        386  MISS:          0  HIT %:        100  MISS %:          0   MPKI: 0
PSCL4 PREFETCH  REQUESTED:          0  ISSUED:          0  USEFUL:          0  USELESS:          0
PSCL4 USEFUL LOAD PREFETCHES:          0 PREFETCH ISSUED TO LOWER LEVEL:          0  ACCURACY: -nan
PSCL4 TIMELY PREFETCHES:          0 LATE PREFETCHES: 0 DROPPED PREFETCHES: 0
PSCL4 PREFETCHES SAME FILL-ORIGIN LEVEL: 0 DIFFERENT FILL-ORIGIN LEVEL: 0

PSCL3 TOTAL     ACCESS:      19930  HIT:      19888  MISS:         42  HIT %:    99.7893  MISS %:   0.210738   MPKI: 0.00084
PSCL3 LOAD TRANSLATION ACCESS:      19544  HIT:      19502  MISS:         42  HIT %:    99.7851  MISS %:     0.2149   MPKI: 0.00084
PSCL3 TRANSLATION FROM L1D PREFETCHER ACCESS:        386  HIT:        386  MISS:          0  HIT %:        100  MISS %:          0   MPKI: 0
PSCL3 PREFETCH  REQUESTED:          0  ISSUED:          0  USEFUL:          0  USELESS:          0
PSCL3 USEFUL LOAD PREFETCHES:          0 PREFETCH ISSUED TO LOWER LEVEL:          0  ACCURACY: -nan
PSCL3 TIMELY PREFETCHES:          0 LATE PREFETCHES: 0 DROPPED PREFETCHES: 0
PSCL3 PREFETCHES SAME FILL-ORIGIN LEVEL: 0 DIFFERENT FILL-ORIGIN LEVEL: 0

PSCL2 TOTAL     ACCESS:      20328  HIT:      18854  MISS:       1474  HIT %:    92.7489  MISS %:    7.25108   MPKI: 0.02948
PSCL2 LOAD TRANSLATION ACCESS:      20073  HIT:      18599  MISS:       1474  HIT %:    92.6568  MISS %:     7.3432   MPKI: 0.02948
PSCL2 TRANSLATION FROM L1D PREFETCHER ACCESS:        255  HIT:        255  MISS:          0  HIT %:        100  MISS %:          0   MPKI: 0
PSCL2 PREFETCH  REQUESTED:          0  ISSUED:          0  USEFUL:          0  USELESS:          0
PSCL2 USEFUL LOAD PREFETCHES:          0 PREFETCH ISSUED TO LOWER LEVEL:          0  ACCURACY: -nan
PSCL2 TIMELY PREFETCHES:          0 LATE PREFETCHES: 0 DROPPED PREFETCHES: 0
PSCL2 PREFETCHES SAME FILL-ORIGIN LEVEL: 0 DIFFERENT FILL-ORIGIN LEVEL: 0

LLC TOTAL     ACCESS:    2891965  HIT:    1233846  MISS:    1658119  HIT %:    42.6646  MISS %:    57.3354   MPKI: 33.1624
LLC LOAD      ACCESS:     333330  HIT:     282633  MISS:      50697  HIT %:    84.7907  MISS %:    15.2093   MPKI: 1.01394
LLC RFO       ACCESS:     952383  HIT:     246554  MISS:     705829  HIT %:    25.8881  MISS %:    74.1119   MPKI: 14.1166
LLC PREFETCH  ACCESS:     508864  HIT:     192795  MISS:     316069  HIT %:    37.8873  MISS %:    62.1127   MPKI: 6.32138
LLC WRITEBACK ACCESS:    1088155  HIT:     508620  MISS:     579535  HIT %:    46.7415  MISS %:    53.2585   MPKI: 11.5907
LLC LOAD TRANSLATION ACCESS:       8787  HIT:       3039  MISS:       5748  HIT %:    34.5852  MISS %:    65.4148   MPKI: 0.11496
LLC TRANSLATION FROM L1D PREFETCHER ACCESS:        446  HIT:        205  MISS:        241  HIT %:    45.9641  MISS %:    54.0359   MPKI: 0.00482
LLC PREFETCH  REQUESTED:          0  ISSUED:          0  USEFUL:       1783  USELESS:     321962
LLC USEFUL LOAD PREFETCHES:       1783 PREFETCH ISSUED TO LOWER LEVEL:     316069  ACCURACY: 0.564117
LLC TIMELY PREFETCHES:       1783 LATE PREFETCHES: 0 DROPPED PREFETCHES: 0
LLC PREFETCHES SAME FILL-ORIGIN LEVEL: 0 DIFFERENT FILL-ORIGIN LEVEL: 0
LLC AVERAGE MISS LATENCY: 147.46 cycles
LLC RQ	ACCESS:    1294947	FORWARD:          0	MERGED:          0	TO_CACHE:    1294946
LLC WQ	ACCESS:    1088155	FORWARD:          1	MERGED:          0	TO_CACHE:    1088155
LLC PQ	ACCESS:     508864	FORWARD:          0	MERGED:          0	TO_CACHE:     508864

LLC Dense regions hint to LLC: 0

RAW hits: 1386270
Loads Generated: 12465612
Loads sent to L1D: 11079342
Stores Generated: 8864282
Stores sent to L1D: 8864293
Major fault: 0 Minor fault: 22424
Allocated PAGES: 22424
I-Shadow cache 408 bytes
Touched + WorthPF tables 6144 bytes 
MMA filter 174 bytes 
FNL filter 272 bytes 
TOTAL PREFETCHER STORAGE SIZE: 25174 bytes
CPU 0 L1I next line prefetcher final stats

stream: 
stream:times selected: 3702780
stream:pref_filled: 863353
stream:pref_useful: 640957
stream:pref_late: 12455
stream:misses: 12715
stream:misses_by_poll: 0

CS: 
CS:times selected: 3429698
CS:pref_filled: 7223
CS:pref_useful: 6988
CS:pref_late: 252
CS:misses: 16936
CS:misses_by_poll: 1

CPLX: 
CPLX:times selected: 268829
CPLX:pref_filled: 8308
CPLX:pref_useful: 1039
CPLX:pref_late: 216
CPLX:misses: 38478
CPLX:misses_by_poll: 0

NL_L1: 
NL:times selected: 916
NL:pref_filled: 174
NL:pref_useful: 5
NL:pref_late: 4
NL:misses: 173
NL:misses_by_poll: 0

total selections: 7402223
total_filled: 373824
total_useful: 318148
total_late: 13825
total_polluted: 1
total_misses_after_warmup: 547304
conflicts: 2593168
Degree Incremented Times: 5597
Degree Decremented Times: 182614

L1 IP Table Write Accesses: 4706351
L1 IP Table Read Accesses: 2113183
L1 RST Write Accesses: 1846609
L1 RST Read Accesses: 3693218
L1 CSPT Write Accesses: 1846609
L1 CSPT Read Accesses: 1976058
L1 RR Filter Tag Write Accesses: 665699
L1 RR Filter Tag Read Accesses: 372171133
L1 IP Table Tag Write Accesses: 7437559
L1 IP Table Tag Read Accesses: 7437559
L1 RST Tag Write Accesses: 0
L1 RST Tag Read Accesses: 16715158
L1 RR Filter Write Accesses: 0
L1 RR Filter Read Accesses: 12724872
test: 134305
L2 IP Table Read Accesses: 4485667
L2 IP Table Write Accesses: 8007915
L2 IP Table Tag Read Accesses: 4047639
L2 IP Table Tag Write Accesses: 4047639

DRAM Statistics
 CHANNEL 0
 RQ ROW_BUFFER_HIT:     481194  ROW_BUFFER_MISS:     597282
 DBUS_CONGESTED:        584
 WQ ROW_BUFFER_HIT:     160116  ROW_BUFFER_MISS:     562563  FULL:      15200

 AVG_CONGESTED_CYCLE: 3
 All warmup complete: 2
Channel 0 Bank busy for read cycles: 0
Channel 0 Bank busy for write cycles: 0
Channel 0
Rank 0
0banks busy for read cycles: 26263729
0banks busy for write cycles: 50771
1banks busy for read cycles: 11556346
1banks busy for write cycles: 7306237
2banks busy for read cycles: 9498889
2banks busy for write cycles: 3115770
3banks busy for read cycles: 4072441
3banks busy for write cycles: 1608354
4banks busy for read cycles: 3139006
4banks busy for write cycles: 1145409
5banks busy for read cycles: 1145672
5banks busy for write cycles: 1009619
6banks busy for read cycles: 1017638
6banks busy for write cycles: 1026375
7banks busy for read cycles: 1629290
7banks busy for write cycles: 1676375
8banks busy for read cycles: 4649992
8banks busy for write cycles: 9604824

CPU 0 Branch Prediction Accuracy: 99.8303% MPKI: 0.27836 Average ROB Occupancy at Mispredict: 110.531
Branch types
NOT_BRANCH: 41798375 83.5967%
BRANCH_DIRECT_JUMP: 445212 0.890424%
BRANCH_INDIRECT: 50481 0.100962%
BRANCH_CONDITIONAL: 5868224 11.7364%
BRANCH_DIRECT_CALL: 758223 1.51645%
BRANCH_INDIRECT_CALL: 160492 0.320984%
BRANCH_RETURN: 918715 1.83743%
BRANCH_OTHER: 0 0%

DRAM PAGES: 1048576
Allocated PAGES: 22424
