
*** ChampSim Multicore Out-of-Order Simulator ***

Warmup Instructions: 50000000
Simulation Instructions: 50000000
Number of CPUs: 1
LLC sets: 2048
LLC ways: 16
Off-chip DRAM Size: 4096 MB Channels: 1 Width: 64-bit Data Rate: 6400 MT/s
CPU 0 runs ../IPC-traces//server_029.champsimtrace.xz
.xz
NUM_OF_IPS_IN_CRITICAL_IP_TRAINING: 64
NUM_OF_CRITICAL_IP_TRAINING_TABLE_WAYS: 2
NUM_OF_CRITICAL_IP_TRAINING_TABLE_SETS: 32
WOBBLY_CRITICAL_IP_CACHE_SETS: 32
WOBBLY_CRITICAL_IP_CACHE_WAYS: 4
BTB has LRU replacement policy
ITLB has LRU replacement policy
DTLB has LRU replacement policy
STLB has LRU replacement policy
CPU 0 L1I next line prefetcher
L1I has LRU replacement policy
IP Table Entries: 64
L1D has LRU replacement policy
Initialize SRRIP state for L2C
Initialize DRRIP state for LLC
Heartbeat CPU 0 instructions: 10000003 cycles: 2880585 heartbeat IPC: 3.47152 cumulative IPC: 3.47152 (Simulation time: 0 hr 5 min 18 sec) 
Heartbeat CPU 0 instructions: 20000001 cycles: 5755877 heartbeat IPC: 3.47791 cumulative IPC: 3.47471 (Simulation time: 0 hr 10 min 9 sec) 
Heartbeat CPU 0 instructions: 30000000 cycles: 8631382 heartbeat IPC: 3.47765 cumulative IPC: 3.47569 (Simulation time: 0 hr 14 min 25 sec) 
Heartbeat CPU 0 instructions: 40000000 cycles: 11511022 heartbeat IPC: 3.47266 cumulative IPC: 3.47493 (Simulation time: 0 hr 18 min 26 sec) 
Heartbeat CPU 0 instructions: 50000002 cycles: 14389765 heartbeat IPC: 3.47374 cumulative IPC: 3.47469 (Simulation time: 0 hr 22 min 15 sec) 

Warmup complete CPU 0 instructions: 50000002 cycles: 14389765 (Simulation time: 0 hr 22 min 15 sec) 

% increase in all ip prefetch 423.672
% increase in all ip prefetch 0.80588
Heartbeat CPU 0 instructions: 60000000 cycles: 30802134 heartbeat IPC: 0.609296 cumulative IPC: 0.609296 (Simulation time: 0 hr 25 min 46 sec) 
Heartbeat CPU 0 instructions: 70000000 cycles: 47283060 heartbeat IPC: 0.606762 cumulative IPC: 0.608027 (Simulation time: 0 hr 29 min 19 sec) 
Heartbeat CPU 0 instructions: 80000002 cycles: 63601311 heartbeat IPC: 0.612811 cumulative IPC: 0.609613 (Simulation time: 0 hr 32 min 48 sec) 
*** Reached end of trace for Core: 0 Repeating trace: ../IPC-traces//server_029.champsimtrace.xz
Heartbeat CPU 0 instructions: 90000000 cycles: 79767046 heartbeat IPC: 0.618592 cumulative IPC: 0.611833 (Simulation time: 0 hr 36 min 19 sec) 
Heartbeat CPU 0 instructions: 100000001 cycles: 95859913 heartbeat IPC: 0.621393 cumulative IPC: 0.613722 (Simulation time: 0 hr 41 min 4 sec) 
Finished CPU 0 instructions: 50000002 cycles: 81470149 cumulative IPC: 0.613722 (Simulation time: 0 hr 41 min 4 sec) 

ChampSim completed all CPUs

Region of Interest Statistics

CPU 0 cumulative IPC: 0.613722 instructions: 50000002 cycles: 81470149

CPU 0 Average Load ROB stall cycles: 1.96946e+07
CPU 0 Fraction of times ROB stalled by Loads: 35.682
CPU 0 Percentage of Load stall cycles in Total stall cycles: 2.6954e+08
Issued all: 28162753
Issued LT all: 22244550
rob_not_full_when_issued_lt_all: 22119748
Issued LT one: 17353056
rob_not_full_when_issued_lt_one: 17245602
 Total stall cycles: 69106994
 Total load stall cycles: 186271274182480
CPU 0 NUM of IPS identified critical: 0
CPU 0 Num of Load IPs stalling ROB: 10056
Threshold modification factor: -1
Max PIST entries: 64
Min PIST entries: 0
Avg PIST entries: 32
Trouble in retire width: 0.891166
MaC = Marked as critical.
lt_50_percent_before_Mac: 0
gt_90_percent_before_Mac: 0
gt_75_percent_before_Mac: 0
gt_50_percent_before_Mac: 0
stall_proportion_bin_same_before_after: 0
stall_proportion_bin_lower_before_after: 0
stall_proportion_bin_upper_before_after: 0
average_stall_proportion_before: -nan
average_stall_proportion_after: -nan
Critical IP stalls, total frequency: 0
Non-critical IP stalls, total frequency: 3374792
Total Freq all stalling IPs: 3374792
stat_90_percent_critical_ip_stalls_freq: 3037396
stat_90_percent_non_critical_ip_stalls_freq: 337396
Critical_IP_ROB_Stalls_Bucket_0: 0
Non-critical_IP_ROB_Stalls_Bucket_0: 2339589
Critical_IP_ROB_Stalls_Bucket_1: 0
Non-critical_IP_ROB_Stalls_Bucket_1: 698131
Critical_IP_ROB_Stalls_Bucket_2: 0
Non-critical_IP_ROB_Stalls_Bucket_2: 238220
Critical_IP_ROB_Stalls_Bucket_3: 0
Non-critical_IP_ROB_Stalls_Bucket_3: 62766
Critical_IP_ROB_Stalls_Bucket_4: 0
Non-critical_IP_ROB_Stalls_Bucket_4: 23066
Critical_IP_ROB_Stalls_Bucket_5: 0
Non-critical_IP_ROB_Stalls_Bucket_5: 7078
Critical_IP_ROB_Stalls_Bucket_6: 0
Non-critical_IP_ROB_Stalls_Bucket_6: 5942
0 => IPs accounting for >50 percent of stalls, 1 => 55, 2 => 60, 3 => 65 and so on till 90.
percent50: 50.0131 num IPs:  427
percent55: 55.0171 num IPs: 609
percent60: 60.0124 num IPs: 819
percent65: 65.0039 num IPs: 1033
percent70: 70.0043 num IPs: 1253
percent75: 75.0187 num IPs: 1474
percent80: 80.0182 num IPs: 1697
percent85: 85.0022 num IPs: 1928
percent90: 90.0021 num IPs: 2190
Critical_ROB_Stalls_Percent_0_Bucket_0: 1005964
Non-critical_ROB_Stalls_Percent_0_Bucket_0: 1333625
Critical_ROB_Stalls_Percent_0_Bucket_1: 422921
Non-critical_ROB_Stalls_Percent_0_Bucket_1: 275210
Critical_ROB_Stalls_Percent_0_Bucket_2: 174055
Non-critical_ROB_Stalls_Percent_0_Bucket_2: 64165
Critical_ROB_Stalls_Percent_0_Bucket_3: 53791
Non-critical_ROB_Stalls_Percent_0_Bucket_3: 8975
Critical_ROB_Stalls_Percent_0_Bucket_4: 19702
Non-critical_ROB_Stalls_Percent_0_Bucket_4: 3364
Critical_ROB_Stalls_Percent_0_Bucket_5: 6082
Non-critical_ROB_Stalls_Percent_0_Bucket_5: 996
Critical_ROB_Stalls_Percent_0_Bucket_6: 5322
Non-critical_ROB_Stalls_Percent_0_Bucket_6: 620
Critical_ROB_Stalls_Percent_1_Bucket_0: 1129360
Non-critical_ROB_Stalls_Percent_1_Bucket_0: 1210229
Critical_ROB_Stalls_Percent_1_Bucket_1: 455812
Non-critical_ROB_Stalls_Percent_1_Bucket_1: 242319
Critical_ROB_Stalls_Percent_1_Bucket_2: 183612
Non-critical_ROB_Stalls_Percent_1_Bucket_2: 54608
Critical_ROB_Stalls_Percent_1_Bucket_3: 55697
Non-critical_ROB_Stalls_Percent_1_Bucket_3: 7069
Critical_ROB_Stalls_Percent_1_Bucket_4: 20781
Non-critical_ROB_Stalls_Percent_1_Bucket_4: 2285
Critical_ROB_Stalls_Percent_1_Bucket_5: 6123
Non-critical_ROB_Stalls_Percent_1_Bucket_5: 955
Critical_ROB_Stalls_Percent_1_Bucket_6: 5327
Non-critical_ROB_Stalls_Percent_1_Bucket_6: 615
Critical_ROB_Stalls_Percent_2_Bucket_0: 1234863
Non-critical_ROB_Stalls_Percent_2_Bucket_0: 1104726
Critical_ROB_Stalls_Percent_2_Bucket_1: 504586
Non-critical_ROB_Stalls_Percent_2_Bucket_1: 193545
Critical_ROB_Stalls_Percent_2_Bucket_2: 196025
Non-critical_ROB_Stalls_Percent_2_Bucket_2: 42195
Critical_ROB_Stalls_Percent_2_Bucket_3: 57499
Non-critical_ROB_Stalls_Percent_2_Bucket_3: 5267
Critical_ROB_Stalls_Percent_2_Bucket_4: 20879
Non-critical_ROB_Stalls_Percent_2_Bucket_4: 2187
Critical_ROB_Stalls_Percent_2_Bucket_5: 6123
Non-critical_ROB_Stalls_Percent_2_Bucket_5: 955
Critical_ROB_Stalls_Percent_2_Bucket_6: 5327
Non-critical_ROB_Stalls_Percent_2_Bucket_6: 615
Critical_ROB_Stalls_Percent_3_Bucket_0: 1363701
Non-critical_ROB_Stalls_Percent_3_Bucket_0: 975888
Critical_ROB_Stalls_Percent_3_Bucket_1: 535808
Non-critical_ROB_Stalls_Percent_3_Bucket_1: 162323
Critical_ROB_Stalls_Percent_3_Bucket_2: 203937
Non-critical_ROB_Stalls_Percent_3_Bucket_2: 34283
Critical_ROB_Stalls_Percent_3_Bucket_3: 57671
Non-critical_ROB_Stalls_Percent_3_Bucket_3: 5095
Critical_ROB_Stalls_Percent_3_Bucket_4: 21184
Non-critical_ROB_Stalls_Percent_3_Bucket_4: 1882
Critical_ROB_Stalls_Percent_3_Bucket_5: 6129
Non-critical_ROB_Stalls_Percent_3_Bucket_5: 949
Critical_ROB_Stalls_Percent_3_Bucket_6: 5327
Non-critical_ROB_Stalls_Percent_3_Bucket_6: 615
Critical_ROB_Stalls_Percent_4_Bucket_0: 1496953
Non-critical_ROB_Stalls_Percent_4_Bucket_0: 842636
Critical_ROB_Stalls_Percent_4_Bucket_1: 565207
Non-critical_ROB_Stalls_Percent_4_Bucket_1: 132924
Critical_ROB_Stalls_Percent_4_Bucket_2: 209988
Non-critical_ROB_Stalls_Percent_4_Bucket_2: 28232
Critical_ROB_Stalls_Percent_4_Bucket_3: 57715
Non-critical_ROB_Stalls_Percent_4_Bucket_3: 5051
Critical_ROB_Stalls_Percent_4_Bucket_4: 21186
Non-critical_ROB_Stalls_Percent_4_Bucket_4: 1880
Critical_ROB_Stalls_Percent_4_Bucket_5: 6129
Non-critical_ROB_Stalls_Percent_4_Bucket_5: 949
Critical_ROB_Stalls_Percent_4_Bucket_6: 5327
Non-critical_ROB_Stalls_Percent_4_Bucket_6: 615
Critical_ROB_Stalls_Percent_5_Bucket_0: 1631670
Non-critical_ROB_Stalls_Percent_5_Bucket_0: 707919
Critical_ROB_Stalls_Percent_5_Bucket_1: 592601
Non-critical_ROB_Stalls_Percent_5_Bucket_1: 105530
Critical_ROB_Stalls_Percent_5_Bucket_2: 216696
Non-critical_ROB_Stalls_Percent_5_Bucket_2: 21524
Critical_ROB_Stalls_Percent_5_Bucket_3: 58124
Non-critical_ROB_Stalls_Percent_5_Bucket_3: 4642
Critical_ROB_Stalls_Percent_5_Bucket_4: 21186
Non-critical_ROB_Stalls_Percent_5_Bucket_4: 1880
Critical_ROB_Stalls_Percent_5_Bucket_5: 6130
Non-critical_ROB_Stalls_Percent_5_Bucket_5: 948
Critical_ROB_Stalls_Percent_5_Bucket_6: 5327
Non-critical_ROB_Stalls_Percent_5_Bucket_6: 615
Critical_ROB_Stalls_Percent_6_Bucket_0: 1776794
Non-critical_ROB_Stalls_Percent_6_Bucket_0: 562795
Critical_ROB_Stalls_Percent_6_Bucket_1: 611416
Non-critical_ROB_Stalls_Percent_6_Bucket_1: 86715
Critical_ROB_Stalls_Percent_6_Bucket_2: 221140
Non-critical_ROB_Stalls_Percent_6_Bucket_2: 17080
Critical_ROB_Stalls_Percent_6_Bucket_3: 58404
Non-critical_ROB_Stalls_Percent_6_Bucket_3: 4362
Critical_ROB_Stalls_Percent_6_Bucket_4: 21233
Non-critical_ROB_Stalls_Percent_6_Bucket_4: 1833
Critical_ROB_Stalls_Percent_6_Bucket_5: 6143
Non-critical_ROB_Stalls_Percent_6_Bucket_5: 935
Critical_ROB_Stalls_Percent_6_Bucket_6: 5330
Non-critical_ROB_Stalls_Percent_6_Bucket_6: 612
Critical_ROB_Stalls_Percent_7_Bucket_0: 1927702
Non-critical_ROB_Stalls_Percent_7_Bucket_0: 411887
Critical_ROB_Stalls_Percent_7_Bucket_1: 625630
Non-critical_ROB_Stalls_Percent_7_Bucket_1: 72501
Critical_ROB_Stalls_Percent_7_Bucket_2: 224117
Non-critical_ROB_Stalls_Percent_7_Bucket_2: 14103
Critical_ROB_Stalls_Percent_7_Bucket_3: 58467
Non-critical_ROB_Stalls_Percent_7_Bucket_3: 4299
Critical_ROB_Stalls_Percent_7_Bucket_4: 21270
Non-critical_ROB_Stalls_Percent_7_Bucket_4: 1796
Critical_ROB_Stalls_Percent_7_Bucket_5: 6145
Non-critical_ROB_Stalls_Percent_7_Bucket_5: 933
Critical_ROB_Stalls_Percent_7_Bucket_6: 5330
Non-critical_ROB_Stalls_Percent_7_Bucket_6: 612
Critical_ROB_Stalls_Percent_8_Bucket_0: 2073958
Non-critical_ROB_Stalls_Percent_8_Bucket_0: 265631
Critical_ROB_Stalls_Percent_8_Bucket_1: 642992
Non-critical_ROB_Stalls_Percent_8_Bucket_1: 55139
Critical_ROB_Stalls_Percent_8_Bucket_2: 226898
Non-critical_ROB_Stalls_Percent_8_Bucket_2: 11322
Critical_ROB_Stalls_Percent_8_Bucket_3: 59539
Non-critical_ROB_Stalls_Percent_8_Bucket_3: 3227
Critical_ROB_Stalls_Percent_8_Bucket_4: 21836
Non-critical_ROB_Stalls_Percent_8_Bucket_4: 1230
Critical_ROB_Stalls_Percent_8_Bucket_5: 6714
Non-critical_ROB_Stalls_Percent_8_Bucket_5: 364
Critical_ROB_Stalls_Percent_8_Bucket_6: 5459
Non-critical_ROB_Stalls_Percent_8_Bucket_6: 483
Average ROB occupancy Load Stall Begin: 37.2048
Average ROB occupancy Load Stall End: 45.9663
Min ROB occupancy Load Stall Begin: 1
Max ROB occupancy Load Stall Begin: 352
Min ROB occupancy Load Stall End: 1
Max ROB occupancy Load Stall End: 352
Average ROB occupancy Critical Load Stall Begin: -nan
Average ROB occupancy Critical Load Stall End: -nan
Min ROB occupancy Critical Load Stall Begin: 400
Max ROB occupancy Critical Load Stall Begin: 0
Min ROB occupancy Critical Load Stall End: 400
Max ROB occupancy Critical Load Stall End: 0
 ROB Load Stall Begin Bucket Count 0: 2603180
 ROB Load Stall End Bucket Count 0: 2339589
 ROB Critical Load Stall Begin Bucket Count 0: 0
 ROB Critical Load Stall End Bucket Count 0: 0
 ROB Load Stall Begin Bucket Count 1: 510400
 ROB Load Stall End Bucket Count 1: 698131
 ROB Critical Load Stall Begin Bucket Count 1: 0
 ROB Critical Load Stall End Bucket Count 1: 0
 ROB Load Stall Begin Bucket Count 2: 183225
 ROB Load Stall End Bucket Count 2: 238220
 ROB Critical Load Stall Begin Bucket Count 2: 0
 ROB Critical Load Stall End Bucket Count 2: 0
 ROB Load Stall Begin Bucket Count 3: 49515
 ROB Load Stall End Bucket Count 3: 62766
 ROB Critical Load Stall Begin Bucket Count 3: 0
 ROB Critical Load Stall End Bucket Count 3: 0
 ROB Load Stall Begin Bucket Count 4: 17812
 ROB Load Stall End Bucket Count 4: 23066
 ROB Critical Load Stall Begin Bucket Count 4: 0
 ROB Critical Load Stall End Bucket Count 4: 0
 ROB Load Stall Begin Bucket Count 5: 5481
 ROB Load Stall End Bucket Count 5: 7078
 ROB Critical Load Stall Begin Bucket Count 5: 0
 ROB Critical Load Stall End Bucket Count 5: 0
 ROB Load Stall Begin Bucket Count 6: 5179
 ROB Load Stall End Bucket Count 6: 5942
 ROB Critical Load Stall Begin Bucket Count 6: 0
 ROB Critical Load Stall End Bucket Count 6: 0
PIST Tag Read Accesses: 2457104
PIST Read Accesses: 1228552
PIST Tag Write Accesses: 2457104
PIST Write Accesses: 1228552
Criticality detector called times: 3294723
Max global_stall_cycles_count: 2152346
Threshold Modified: 1 times, factor: -1
Sturdy critical IP cache stats: 
 Unused entries: 0
CIC Tag Read Accesses: 0
CIC Read Accesses: 0
CIC Tag Write Accesses: 0
CIC Write Accesses: 0
Wobbly critical IP cache stats: 
 Unused entries: 123
CIC Tag Read Accesses: 82815135
CIC Read Accesses: 0
CIC Tag Write Accesses: 5
CIC Write Accesses: 0
ITLB TOTAL     ACCESS:   10457945  HIT:    9708377  MISS:     749568  HIT %:    92.8325  MISS %:    7.16745   MPKI: 14.9914
ITLB LOAD TRANSLATION ACCESS:    8320156  HIT:    8265610  MISS:      54546  HIT %:    99.3444  MISS %:   0.655589   MPKI: 1.09092
ITLB TRANSLATION FROM L1D PREFETCHER ACCESS:    2137789  HIT:    1442767  MISS:     695022  HIT %:    67.4887  MISS %:    32.5113   MPKI: 13.9004
ITLB PREFETCH  REQUESTED:          0  ISSUED:          0  USEFUL:     552917  USELESS:     142102
ITLB USEFUL LOAD PREFETCHES:     552917 PREFETCH ISSUED TO LOWER LEVEL:          0  ACCURACY: inf
ITLB TIMELY PREFETCHES:     552917 LATE PREFETCHES: 28 DROPPED PREFETCHES: 5293
ITLB PREFETCHES SAME FILL-ORIGIN LEVEL: 0 DIFFERENT FILL-ORIGIN LEVEL: 0
ITLB AVERAGE MISS LATENCY: 1855.36 cycles
ITLB RQ	ACCESS:   15839636	FORWARD:          0	MERGED:    5335367	TO_CACHE:   10504269

DTLB TOTAL     ACCESS:   11133559  HIT:   10589421  MISS:     544138  HIT %:    95.1126  MISS %:    4.88737   MPKI: 10.8828
DTLB LOAD TRANSLATION ACCESS:   11133559  HIT:   10589421  MISS:     544138  HIT %:    95.1126  MISS %:    4.88737   MPKI: 10.8828
DTLB PREFETCH  REQUESTED:          0  ISSUED:          0  USEFUL:          0  USELESS:          0
DTLB USEFUL LOAD PREFETCHES:          0 PREFETCH ISSUED TO LOWER LEVEL:          0  ACCURACY: -nan
DTLB TIMELY PREFETCHES:          0 LATE PREFETCHES: 0 DROPPED PREFETCHES: 0
DTLB PREFETCHES SAME FILL-ORIGIN LEVEL: 0 DIFFERENT FILL-ORIGIN LEVEL: 0
DTLB AVERAGE MISS LATENCY: 11.0001 cycles
DTLB RQ	ACCESS:   14627108	FORWARD:          0	MERGED:    3466514	TO_CACHE:   11160594

STLB TOTAL     ACCESS:    1318025  HIT:    1302881  MISS:      15144  HIT %:     98.851  MISS %:    1.14899   MPKI: 0.30288
STLB LOAD TRANSLATION ACCESS:     598656  HIT:     585411  MISS:      13245  HIT %:    97.7875  MISS %:    2.21246   MPKI: 0.2649
STLB TRANSLATION FROM L1D PREFETCHER ACCESS:     719369  HIT:     717470  MISS:       1899  HIT %:     99.736  MISS %:   0.263981   MPKI: 0.03798
STLB PREFETCH  REQUESTED:          0  ISSUED:          0  USEFUL:       1475  USELESS:        432
STLB USEFUL LOAD PREFETCHES:       1475 PREFETCH ISSUED TO LOWER LEVEL:          0  ACCURACY: inf
STLB TIMELY PREFETCHES:       1475 LATE PREFETCHES: 0 DROPPED PREFETCHES: 5293
STLB PREFETCHES SAME FILL-ORIGIN LEVEL: 0 DIFFERENT FILL-ORIGIN LEVEL: 0
STLB AVERAGE MISS LATENCY: 77.5685 cycles
STLB RQ	ACCESS:    1337947	FORWARD:          0	MERGED:      14629	TO_CACHE:    1323318

STLB Hit, L1D data hit: 0
STLB Hit, L2C data hit: 0
STLB Hit, LLC data hit: 0
STLB Hit, LLC data miss: 0
STLB STLB hints to L2: 0
L1D TOTAL     ACCESS:   14118061  HIT:   12636592  MISS:    1481469  HIT %:    89.5066  MISS %:    10.4934   MPKI: 29.6294
L1D LOAD      ACCESS:    7881559  HIT:    6737045  MISS:    1144514  HIT %:    85.4786  MISS %:    14.5214   MPKI: 22.8903
L1D RFO       ACCESS:    6202097  HIT:    5891809  MISS:     310288  HIT %:     94.997  MISS %:    5.00295   MPKI: 6.20576
L1D PREFETCH  ACCESS:      34405  HIT:       7738  MISS:      26667  HIT %:    22.4909  MISS %:    77.5091   MPKI: 0.53334
L1D PREFETCH  REQUESTED:      77915  ISSUED:      77904  USEFUL:      11105  USELESS:      15598
L1D USEFUL LOAD PREFETCHES:      11105 PREFETCH ISSUED TO LOWER LEVEL:      29723  ACCURACY: 37.3616
L1D TIMELY PREFETCHES:      11105 LATE PREFETCHES: 3022 DROPPED PREFETCHES: 0
L1D PREFETCHES SAME FILL-ORIGIN LEVEL: 29723 DIFFERENT FILL-ORIGIN LEVEL: 0
L1D AVERAGE MISS LATENCY: 50236.4 cycles
L1D RQ	ACCESS:   11228669	FORWARD:          0	MERGED:    3157034	TO_CACHE:    7925653
L1D WQ	ACCESS:    6772786	FORWARD:     145988	MERGED:      71331	TO_CACHE:    6701455
L1D PQ	ACCESS:      38955	FORWARD:          0	MERGED:          0	TO_CACHE:      38949

L1D UNIQUE REGIONS ACCESSED: 0
L1D REGIONS CONFLICTS: 0
L1D Cross Page Prefetch Requests: 0
L1D Same Page Prefetch Requests: 701457
L1D ROI Sum of L1D PQ occupancy: 508601
L1D PREFETCHES PUSHED FROM L2C: 0
L1I TOTAL     ACCESS:   15753788  HIT:   11505804  MISS:    4247984  HIT %:    73.0352  MISS %:    26.9648   MPKI: 84.9597
L1I LOAD      ACCESS:    9772273  HIT:    9698303  MISS:      73970  HIT %:    99.2431  MISS %:   0.756938   MPKI: 1.4794
L1I PREFETCH  ACCESS:    5981515  HIT:    1807501  MISS:    4174014  HIT %:    30.2181  MISS %:    69.7819   MPKI: 83.4803
L1I PREFETCH  REQUESTED:    6196859  ISSUED:    6185760  USEFUL:    2959546  USELESS:    1214530
L1I USEFUL LOAD PREFETCHES:    2959546 PREFETCH ISSUED TO LOWER LEVEL:    4188083  ACCURACY: 70.6659
L1I TIMELY PREFETCHES:    2959546 LATE PREFETCHES: 14072 DROPPED PREFETCHES: 11591
L1I PREFETCHES SAME FILL-ORIGIN LEVEL: 4188083 DIFFERENT FILL-ORIGIN LEVEL: 0
L1I AVERAGE MISS LATENCY: 179903 cycles
L1I RQ	ACCESS:   13580418	FORWARD:          0	MERGED:    3799497	TO_CACHE:    9780921
L1I PQ	ACCESS:    6185760	FORWARD:          0	MERGED:     127045	TO_CACHE:    6058715

BTB TOTAL     ACCESS:    6128543  HIT:    4286212  MISS:    1842331  HIT %:    69.9385  MISS %:    30.0615   MPKI: 36.8466
BTB BRANCH_DIRECT_JUMP	ACCESS:     525208  HIT:     377778  MISS:     147430
BTB BRANCH_INDIRECT	ACCESS:     166358  HIT:     130843  MISS:      35515
BTB BRANCH_CONDITIONAL	ACCESS:    3088483  HIT:    2580548  MISS:     507935
BTB BRANCH_DIRECT_CALL	ACCESS:     989261  HIT:     628303  MISS:     360958
BTB BRANCH_INDIRECT_CALL	ACCESS:     184984  HIT:     116407  MISS:      68577
BTB BRANCH_RETURN	ACCESS:    1174249  HIT:     452333  MISS:     721916
BTB BRANCH_OTHER ACCESS:          0  HIT:          0  MISS:          0

L2C TOTAL     ACCESS:    6395929  HIT:    5886342  MISS:     509587  HIT %:    92.0326  MISS %:    7.96736   MPKI: 10.1917
L2C LOAD      ACCESS:    1201387  HIT:    1045796  MISS:     155591  HIT %:    87.0491  MISS %:    12.9509   MPKI: 3.11182
L2C DATA LOAD MPKI: 2.96422
L2C INSTRUCTION LOAD MPKI: 0.1476
L2C RFO       ACCESS:     310253  HIT:     274167  MISS:      36086  HIT %:    88.3688  MISS %:    11.6312   MPKI: 0.72172
L2C PREFETCH  ACCESS:    4259047  HIT:    3971597  MISS:     287450  HIT %:    93.2508  MISS %:    6.74916   MPKI: 5.749
L2C DATA PREFETCH MPKI: 0.33966
L2C INSTRUCTION PREFETCH MPKI: 5.40934
L2C WRITEBACK ACCESS:     594325  HIT:     575557  MISS:      18768  HIT %:    96.8421  MISS %:    3.15787   MPKI: 0.37536
L2C LOAD TRANSLATION ACCESS:      19865  HIT:       9124  MISS:      10741  HIT %:      45.93  MISS %:      54.07   MPKI: 0.21482
L2C TRANSLATION FROM L1D PREFETCHER ACCESS:      11052  HIT:      10101  MISS:        951  HIT %:    91.3952  MISS %:    8.60478   MPKI: 0.01902
L2C PREFETCH  REQUESTED:      47045  ISSUED:      47045  USEFUL:       3187  USELESS:     286800
L2C USEFUL LOAD PREFETCHES:       3187 PREFETCH ISSUED TO LOWER LEVEL:     287636  ACCURACY: 1.108
L2C TIMELY PREFETCHES:       3187 LATE PREFETCHES: 186 DROPPED PREFETCHES: 0
L2C PREFETCHES SAME FILL-ORIGIN LEVEL: 5952 DIFFERENT FILL-ORIGIN LEVEL: 0
L2C AVERAGE MISS LATENCY: 40.3151 cycles
L2C RQ	ACCESS:    1542561	FORWARD:          0	MERGED:          0	TO_CACHE:    1542557
L2C WQ	ACCESS:     594325	FORWARD:          4	MERGED:          0	TO_CACHE:     594325
L2C PQ	ACCESS:    4264851	FORWARD:          0	MERGED:       4158	TO_CACHE:    4260693

L2C Instructions Evicting Data 104156
L2C Translations Evicting Data 7404
L2C Data Evicting Data 101112
L2C Instructions Evicting Instructions 170096
L2C Translations Evicting Instructions 3413
L2C Data Evicting Instructions 93201
L2C Instructions Evicting Translations 3595
L2C Translations Evicting Translations 875
L2C Data Evicting Translations 6967
L2C Dense regions hint from L2: 0
PSCL5 TOTAL     ACCESS:      20437  HIT:      20437  MISS:          0  HIT %:        100  MISS %:          0   MPKI: 0
PSCL5 LOAD TRANSLATION ACCESS:      13245  HIT:      13245  MISS:          0  HIT %:        100  MISS %:          0   MPKI: 0
PSCL5 TRANSLATION FROM L1D PREFETCHER ACCESS:       7192  HIT:       7192  MISS:          0  HIT %:        100  MISS %:          0   MPKI: 0
PSCL5 PREFETCH  REQUESTED:          0  ISSUED:          0  USEFUL:          0  USELESS:          0
PSCL5 USEFUL LOAD PREFETCHES:          0 PREFETCH ISSUED TO LOWER LEVEL:          0  ACCURACY: -nan
PSCL5 TIMELY PREFETCHES:          0 LATE PREFETCHES: 0 DROPPED PREFETCHES: 0
PSCL5 PREFETCHES SAME FILL-ORIGIN LEVEL: 0 DIFFERENT FILL-ORIGIN LEVEL: 0

PSCL4 TOTAL     ACCESS:      19820  HIT:      19659  MISS:        161  HIT %:    99.1877  MISS %:   0.812311   MPKI: 0.00322
PSCL4 LOAD TRANSLATION ACCESS:      12748  HIT:      12587  MISS:        161  HIT %:    98.7371  MISS %:    1.26294   MPKI: 0.00322
PSCL4 TRANSLATION FROM L1D PREFETCHER ACCESS:       7072  HIT:       7072  MISS:          0  HIT %:        100  MISS %:          0   MPKI: 0
PSCL4 PREFETCH  REQUESTED:          0  ISSUED:          0  USEFUL:          0  USELESS:          0
PSCL4 USEFUL LOAD PREFETCHES:          0 PREFETCH ISSUED TO LOWER LEVEL:          0  ACCURACY: -nan
PSCL4 TIMELY PREFETCHES:          0 LATE PREFETCHES: 0 DROPPED PREFETCHES: 0
PSCL4 PREFETCHES SAME FILL-ORIGIN LEVEL: 0 DIFFERENT FILL-ORIGIN LEVEL: 0

PSCL3 TOTAL     ACCESS:      20322  HIT:      20160  MISS:        162  HIT %:    99.2028  MISS %:   0.797166   MPKI: 0.00324
PSCL3 LOAD TRANSLATION ACCESS:      13250  HIT:      13088  MISS:        162  HIT %:    98.7774  MISS %:    1.22264   MPKI: 0.00324
PSCL3 TRANSLATION FROM L1D PREFETCHER ACCESS:       7072  HIT:       7072  MISS:          0  HIT %:        100  MISS %:          0   MPKI: 0
PSCL3 PREFETCH  REQUESTED:          0  ISSUED:          0  USEFUL:          0  USELESS:          0
PSCL3 USEFUL LOAD PREFETCHES:          0 PREFETCH ISSUED TO LOWER LEVEL:          0  ACCURACY: -nan
PSCL3 TIMELY PREFETCHES:          0 LATE PREFETCHES: 0 DROPPED PREFETCHES: 0
PSCL3 PREFETCHES SAME FILL-ORIGIN LEVEL: 0 DIFFERENT FILL-ORIGIN LEVEL: 0

PSCL2 TOTAL     ACCESS:      17498  HIT:      10369  MISS:       7129  HIT %:    59.2582  MISS %:    40.7418   MPKI: 0.14258
PSCL2 LOAD TRANSLATION ACCESS:      14014  HIT:       6885  MISS:       7129  HIT %:    49.1294  MISS %:    50.8706   MPKI: 0.14258
PSCL2 TRANSLATION FROM L1D PREFETCHER ACCESS:       3484  HIT:       3484  MISS:          0  HIT %:        100  MISS %:          0   MPKI: 0
PSCL2 PREFETCH  REQUESTED:          0  ISSUED:          0  USEFUL:          0  USELESS:          0
PSCL2 USEFUL LOAD PREFETCHES:          0 PREFETCH ISSUED TO LOWER LEVEL:          0  ACCURACY: -nan
PSCL2 TIMELY PREFETCHES:          0 LATE PREFETCHES: 0 DROPPED PREFETCHES: 0
PSCL2 PREFETCHES SAME FILL-ORIGIN LEVEL: 0 DIFFERENT FILL-ORIGIN LEVEL: 0

LLC TOTAL     ACCESS:     541342  HIT:     500435  MISS:      40907  HIT %:    92.4434  MISS %:    7.55659   MPKI: 0.81814
LLC LOAD      ACCESS:     155407  HIT:     127911  MISS:      27496  HIT %:    82.3071  MISS %:    17.6929   MPKI: 0.54992
LLC RFO       ACCESS:      36069  HIT:      32442  MISS:       3627  HIT %:    89.9443  MISS %:    10.0557   MPKI: 0.07254
LLC PREFETCH  ACCESS:     287636  HIT:     279704  MISS:       7932  HIT %:    97.2423  MISS %:    2.75765   MPKI: 0.15864
LLC WRITEBACK ACCESS:      50538  HIT:      50276  MISS:        262  HIT %:    99.4816  MISS %:   0.518422   MPKI: 0.00524
LLC LOAD TRANSLATION ACCESS:      10741  HIT:       9186  MISS:       1555  HIT %:    85.5228  MISS %:    14.4772   MPKI: 0.0311
LLC TRANSLATION FROM L1D PREFETCHER ACCESS:        951  HIT:        916  MISS:         35  HIT %:    96.3197  MISS %:    3.68034   MPKI: 0.0007
LLC PREFETCH  REQUESTED:          0  ISSUED:          0  USEFUL:       1676  USELESS:      18981
LLC USEFUL LOAD PREFETCHES:       1676 PREFETCH ISSUED TO LOWER LEVEL:       7932  ACCURACY: 21.1296
LLC TIMELY PREFETCHES:       1676 LATE PREFETCHES: 0 DROPPED PREFETCHES: 0
LLC PREFETCHES SAME FILL-ORIGIN LEVEL: 0 DIFFERENT FILL-ORIGIN LEVEL: 0
LLC AVERAGE MISS LATENCY: 141.893 cycles
LLC RQ	ACCESS:     203183	FORWARD:          0	MERGED:          0	TO_CACHE:     203168
LLC WQ	ACCESS:      50538	FORWARD:         15	MERGED:          0	TO_CACHE:      50538
LLC PQ	ACCESS:     287636	FORWARD:          0	MERGED:          0	TO_CACHE:     287636

LLC Dense regions hint to LLC: 0

RAW hits: 1082464
Loads Generated: 12311133
Loads sent to L1D: 11228669
Stores Generated: 6772777
Stores sent to L1D: 6772786
Major fault: 0 Minor fault: 6134
Allocated PAGES: 6134
I-Shadow cache 408 bytes
Touched + WorthPF tables 6144 bytes 
MMA filter 174 bytes 
FNL filter 272 bytes 
TOTAL PREFETCHER STORAGE SIZE: 25174 bytes
CPU 0 L1I next line prefetcher final stats

stream: 
stream:times selected: 760573
stream:pref_filled: 81882
stream:pref_useful: 18609
stream:pref_late: 5247
stream:misses: 6923
stream:misses_by_poll: 0

CS: 
CS:times selected: 88435
CS:pref_filled: 54056
CS:pref_useful: 44274
CS:pref_late: 3209
CS:misses: 14079
CS:misses_by_poll: 1

CPLX: 
CPLX:times selected: 670493
CPLX:pref_filled: 303869
CPLX:pref_useful: 180728
CPLX:pref_late: 16655
CPLX:misses: 99119
CPLX:misses_by_poll: 17

NL_L1: 
NL:times selected: 2662
NL:pref_filled: 110
NL:pref_useful: 22
NL:pref_late: 6
NL:misses: 86
NL:misses_by_poll: 0

total selections: 1522163
total_filled: 26667
total_useful: 11105
total_late: 26895
total_polluted: 18
total_misses_after_warmup: 42601
conflicts: 133267
Degree Incremented Times: 21094
Degree Decremented Times: 52783

L1 IP Table Write Accesses: 269044
L1 IP Table Read Accesses: 135777
L1 RST Write Accesses: 42557
L1 RST Read Accesses: 85114
L1 CSPT Write Accesses: 42557
L1 CSPT Read Accesses: 135723
L1 RR Filter Tag Write Accesses: 38966
L1 RR Filter Tag Read Accesses: 3098616
L1 IP Table Tag Write Accesses: 409883
L1 IP Table Tag Read Accesses: 409883
L1 RST Tag Write Accesses: 0
L1 RST Tag Read Accesses: 330227
L1 RR Filter Write Accesses: 0
L1 RR Filter Read Accesses: 111102
test: 89735
L2 IP Table Read Accesses: 92822
L2 IP Table Write Accesses: 118698
L2 IP Table Tag Read Accesses: 63397
L2 IP Table Tag Write Accesses: 63397

DRAM Statistics
 CHANNEL 0
 RQ ROW_BUFFER_HIT:      13959  ROW_BUFFER_MISS:      26670
 DBUS_CONGESTED:         13
 WQ ROW_BUFFER_HIT:        720  ROW_BUFFER_MISS:       2311  FULL:          0

 AVG_CONGESTED_CYCLE: 4
 All warmup complete: 2
Channel 0 Bank busy for read cycles: 0
Channel 0 Bank busy for write cycles: 0
Channel 0
Rank 0
0banks busy for read cycles: 77466636
0banks busy for write cycles: 1766
1banks busy for read cycles: 2472938
1banks busy for write cycles: 462869
2banks busy for read cycles: 550297
2banks busy for write cycles: 144812
3banks busy for read cycles: 159588
3banks busy for write cycles: 60131
4banks busy for read cycles: 46184
4banks busy for write cycles: 20284
5banks busy for read cycles: 22124
5banks busy for write cycles: 5239
6banks busy for read cycles: 14248
6banks busy for write cycles: 2739
7banks busy for read cycles: 13401
7banks busy for write cycles: 1114
8banks busy for read cycles: 21600
8banks busy for write cycles: 4180

CPU 0 Branch Prediction Accuracy: 99.7245% MPKI: 0.51862 Average ROB Occupancy at Mispredict: 93.2003
Branch types
NOT_BRANCH: 40586520 81.173%
BRANCH_DIRECT_JUMP: 525208 1.05042%
BRANCH_INDIRECT: 166358 0.332716%
BRANCH_CONDITIONAL: 6373074 12.7461%
BRANCH_DIRECT_CALL: 989261 1.97852%
BRANCH_INDIRECT_CALL: 184984 0.369968%
BRANCH_RETURN: 1174249 2.3485%
BRANCH_OTHER: 0 0%

DRAM PAGES: 1048576
Allocated PAGES: 6134
