
*** ChampSim Multicore Out-of-Order Simulator ***

Warmup Instructions: 50000000
Simulation Instructions: 50000000
Number of CPUs: 1
LLC sets: 2048
LLC ways: 16
Off-chip DRAM Size: 4096 MB Channels: 1 Width: 64-bit Data Rate: 6400 MT/s
CPU 0 runs ../IPC-traces//server_020.champsimtrace.xz
.xz
BTB has LRU replacement policy
ITLB has LRU replacement policy
DTLB has LRU replacement policy
STLB has LRU replacement policy
CPU 0 L1I next line prefetcher
L1I has LRU replacement policy
IP Table Entries: 64
L1D has LRU replacement policy
Initialize SRRIP state for L2C
Initialize DRRIP state for LLC
Heartbeat CPU 0 instructions: 10000003 cycles: 3176689 heartbeat IPC: 3.14793 cumulative IPC: 3.14793 (Simulation time: 0 hr 2 min 24 sec) 
Heartbeat CPU 0 instructions: 20000001 cycles: 6347822 heartbeat IPC: 3.15345 cumulative IPC: 3.15069 (Simulation time: 0 hr 4 min 50 sec) 
Heartbeat CPU 0 instructions: 30000000 cycles: 9507148 heartbeat IPC: 3.16523 cumulative IPC: 3.15552 (Simulation time: 0 hr 7 min 13 sec) 
Heartbeat CPU 0 instructions: 40000001 cycles: 12674650 heartbeat IPC: 3.15706 cumulative IPC: 3.15591 (Simulation time: 0 hr 9 min 40 sec) 
Heartbeat CPU 0 instructions: 50000002 cycles: 15860620 heartbeat IPC: 3.13876 cumulative IPC: 3.15246 (Simulation time: 0 hr 12 min 1 sec) 

Warmup complete CPU 0 instructions: 50000002 cycles: 15860620 (Simulation time: 0 hr 12 min 1 sec) 

Heartbeat CPU 0 instructions: 60000000 cycles: 34458943 heartbeat IPC: 0.537683 cumulative IPC: 0.537683 (Simulation time: 0 hr 15 min 35 sec) 
Heartbeat CPU 0 instructions: 70000002 cycles: 52962792 heartbeat IPC: 0.540428 cumulative IPC: 0.539052 (Simulation time: 0 hr 19 min 11 sec) 
Heartbeat CPU 0 instructions: 80000002 cycles: 71344295 heartbeat IPC: 0.544025 cumulative IPC: 0.5407 (Simulation time: 0 hr 22 min 48 sec) 
Heartbeat CPU 0 instructions: 90000003 cycles: 89687143 heartbeat IPC: 0.545172 cumulative IPC: 0.541811 (Simulation time: 0 hr 27 min 27 sec) 
Heartbeat CPU 0 instructions: 100000002 cycles: 108061826 heartbeat IPC: 0.544227 cumulative IPC: 0.542292 (Simulation time: 0 hr 32 min 15 sec) 
Finished CPU 0 instructions: 50000000 cycles: 92201206 cumulative IPC: 0.542292 (Simulation time: 0 hr 32 min 15 sec) 

ChampSim completed all CPUs

Region of Interest Statistics

CPU 0 cumulative IPC: 0.542292 instructions: 50000000 cycles: 92201206

CPU 0 Average Load ROB stall cycles: 2.80885e+07
CPU 0 Fraction of times ROB stalled by Loads: 45.2978
CPU 0 Percentage of Load stall cycles in Total stall cycles: 2.66106e+08
Issued all: 47212500
Issued LT all: 41887877
rob_not_full_when_issued_lt_all: 16960146
Issued LT one: 36095961
rob_not_full_when_issued_lt_one: 12932110
FVP critical_dynamic_instances_0: 2674306
FVP unique_critical_ips_0: 2741
 Total stall cycles: 75505279
 Total load stall cycles: 200923909610117
Unique Load IPs: 5965
CPU 0 NUM of IPS identified critical: 0
CPU 0 Num of Load IPs stalling ROB: 0
Threshold modification factor: 0
Trouble in retire width: -nan
MaC = Marked as critical.
lt_50_percent_before_Mac: 0
gt_90_percent_before_Mac: 0
gt_75_percent_before_Mac: 0
gt_50_percent_before_Mac: 0
stall_proportion_bin_same_before_after: 0
stall_proportion_bin_lower_before_after: 0
stall_proportion_bin_upper_before_after: 0
average_stall_proportion_before: -nan
average_stall_proportion_after: -nan
Critical IP stalls, total frequency: 0
Non-critical IP stalls, total frequency: 0
Total Freq all stalling IPs: 0
Critical_IP_Detector_Accuracy_70: 0.00036483
Critical_IP_Detector_Accuracy_80: 0.00036483
Critical_IP_Detector_Accuracy_90: 0.00036483
Critical_IP_Detector_Coverage_70: 1
Critical_IP_Detector_Coverage_80: 1
Critical_IP_Detector_Coverage_90: 1
stat_90_percent_critical_ip_stalls_freq: 285388
stat_90_percent_non_critical_ip_stalls_freq: 18446744073709266228
AVERAGE_ROB_Occupancy_90_Percent_Critical_IP_Stalls: 312.197
AVERAGE_ROB_Occupancy_90_Percent_Non_Critical_IP_Stalls: 2.86652e-11
Critical_IP_ROB_Stalls_Bucket_0: 0
Non-critical_IP_ROB_Stalls_Bucket_0: 491646
Critical_IP_ROB_Stalls_Bucket_1: 0
Non-critical_IP_ROB_Stalls_Bucket_1: 622002
Critical_IP_ROB_Stalls_Bucket_2: 0
Non-critical_IP_ROB_Stalls_Bucket_2: 465344
Critical_IP_ROB_Stalls_Bucket_3: 0
Non-critical_IP_ROB_Stalls_Bucket_3: 274816
Critical_IP_ROB_Stalls_Bucket_4: 0
Non-critical_IP_ROB_Stalls_Bucket_4: 164337
Critical_IP_ROB_Stalls_Bucket_5: 0
Non-critical_IP_ROB_Stalls_Bucket_5: 147978
Critical_IP_ROB_Stalls_Bucket_6: 0
Non-critical_IP_ROB_Stalls_Bucket_6: 1074140
0 => IPs accounting for >50 percent of stalls, 1 => 55, 2 => 60, 3 => 65 and so on till 90.
percent50: inf num IPs:  1
percent55: inf num IPs: 1
percent60: inf num IPs: 1
percent65: inf num IPs: 1
percent70: inf num IPs: 1
percent75: inf num IPs: 1
percent80: inf num IPs: 1
percent85: inf num IPs: 1
percent90: inf num IPs: 1
Critical_ROB_Stalls_Percent_0_Bucket_0: 703
Non-critical_ROB_Stalls_Percent_0_Bucket_0: 490943
Critical_ROB_Stalls_Percent_0_Bucket_1: 3667
Non-critical_ROB_Stalls_Percent_0_Bucket_1: 618335
Critical_ROB_Stalls_Percent_0_Bucket_2: 13408
Non-critical_ROB_Stalls_Percent_0_Bucket_2: 451936
Critical_ROB_Stalls_Percent_0_Bucket_3: 19660
Non-critical_ROB_Stalls_Percent_0_Bucket_3: 255156
Critical_ROB_Stalls_Percent_0_Bucket_4: 16979
Non-critical_ROB_Stalls_Percent_0_Bucket_4: 147358
Critical_ROB_Stalls_Percent_0_Bucket_5: 15230
Non-critical_ROB_Stalls_Percent_0_Bucket_5: 132748
Critical_ROB_Stalls_Percent_0_Bucket_6: 215741
Non-critical_ROB_Stalls_Percent_0_Bucket_6: 858399
Critical_ROB_Stalls_Percent_1_Bucket_0: 703
Non-critical_ROB_Stalls_Percent_1_Bucket_0: 490943
Critical_ROB_Stalls_Percent_1_Bucket_1: 3667
Non-critical_ROB_Stalls_Percent_1_Bucket_1: 618335
Critical_ROB_Stalls_Percent_1_Bucket_2: 13408
Non-critical_ROB_Stalls_Percent_1_Bucket_2: 451936
Critical_ROB_Stalls_Percent_1_Bucket_3: 19660
Non-critical_ROB_Stalls_Percent_1_Bucket_3: 255156
Critical_ROB_Stalls_Percent_1_Bucket_4: 16979
Non-critical_ROB_Stalls_Percent_1_Bucket_4: 147358
Critical_ROB_Stalls_Percent_1_Bucket_5: 15230
Non-critical_ROB_Stalls_Percent_1_Bucket_5: 132748
Critical_ROB_Stalls_Percent_1_Bucket_6: 215741
Non-critical_ROB_Stalls_Percent_1_Bucket_6: 858399
Critical_ROB_Stalls_Percent_2_Bucket_0: 703
Non-critical_ROB_Stalls_Percent_2_Bucket_0: 490943
Critical_ROB_Stalls_Percent_2_Bucket_1: 3667
Non-critical_ROB_Stalls_Percent_2_Bucket_1: 618335
Critical_ROB_Stalls_Percent_2_Bucket_2: 13408
Non-critical_ROB_Stalls_Percent_2_Bucket_2: 451936
Critical_ROB_Stalls_Percent_2_Bucket_3: 19660
Non-critical_ROB_Stalls_Percent_2_Bucket_3: 255156
Critical_ROB_Stalls_Percent_2_Bucket_4: 16979
Non-critical_ROB_Stalls_Percent_2_Bucket_4: 147358
Critical_ROB_Stalls_Percent_2_Bucket_5: 15230
Non-critical_ROB_Stalls_Percent_2_Bucket_5: 132748
Critical_ROB_Stalls_Percent_2_Bucket_6: 215741
Non-critical_ROB_Stalls_Percent_2_Bucket_6: 858399
Critical_ROB_Stalls_Percent_3_Bucket_0: 703
Non-critical_ROB_Stalls_Percent_3_Bucket_0: 490943
Critical_ROB_Stalls_Percent_3_Bucket_1: 3667
Non-critical_ROB_Stalls_Percent_3_Bucket_1: 618335
Critical_ROB_Stalls_Percent_3_Bucket_2: 13408
Non-critical_ROB_Stalls_Percent_3_Bucket_2: 451936
Critical_ROB_Stalls_Percent_3_Bucket_3: 19660
Non-critical_ROB_Stalls_Percent_3_Bucket_3: 255156
Critical_ROB_Stalls_Percent_3_Bucket_4: 16979
Non-critical_ROB_Stalls_Percent_3_Bucket_4: 147358
Critical_ROB_Stalls_Percent_3_Bucket_5: 15230
Non-critical_ROB_Stalls_Percent_3_Bucket_5: 132748
Critical_ROB_Stalls_Percent_3_Bucket_6: 215741
Non-critical_ROB_Stalls_Percent_3_Bucket_6: 858399
Critical_ROB_Stalls_Percent_4_Bucket_0: 703
Non-critical_ROB_Stalls_Percent_4_Bucket_0: 490943
Critical_ROB_Stalls_Percent_4_Bucket_1: 3667
Non-critical_ROB_Stalls_Percent_4_Bucket_1: 618335
Critical_ROB_Stalls_Percent_4_Bucket_2: 13408
Non-critical_ROB_Stalls_Percent_4_Bucket_2: 451936
Critical_ROB_Stalls_Percent_4_Bucket_3: 19660
Non-critical_ROB_Stalls_Percent_4_Bucket_3: 255156
Critical_ROB_Stalls_Percent_4_Bucket_4: 16979
Non-critical_ROB_Stalls_Percent_4_Bucket_4: 147358
Critical_ROB_Stalls_Percent_4_Bucket_5: 15230
Non-critical_ROB_Stalls_Percent_4_Bucket_5: 132748
Critical_ROB_Stalls_Percent_4_Bucket_6: 215741
Non-critical_ROB_Stalls_Percent_4_Bucket_6: 858399
Critical_ROB_Stalls_Percent_5_Bucket_0: 703
Non-critical_ROB_Stalls_Percent_5_Bucket_0: 490943
Critical_ROB_Stalls_Percent_5_Bucket_1: 3667
Non-critical_ROB_Stalls_Percent_5_Bucket_1: 618335
Critical_ROB_Stalls_Percent_5_Bucket_2: 13408
Non-critical_ROB_Stalls_Percent_5_Bucket_2: 451936
Critical_ROB_Stalls_Percent_5_Bucket_3: 19660
Non-critical_ROB_Stalls_Percent_5_Bucket_3: 255156
Critical_ROB_Stalls_Percent_5_Bucket_4: 16979
Non-critical_ROB_Stalls_Percent_5_Bucket_4: 147358
Critical_ROB_Stalls_Percent_5_Bucket_5: 15230
Non-critical_ROB_Stalls_Percent_5_Bucket_5: 132748
Critical_ROB_Stalls_Percent_5_Bucket_6: 215741
Non-critical_ROB_Stalls_Percent_5_Bucket_6: 858399
Critical_ROB_Stalls_Percent_6_Bucket_0: 703
Non-critical_ROB_Stalls_Percent_6_Bucket_0: 490943
Critical_ROB_Stalls_Percent_6_Bucket_1: 3667
Non-critical_ROB_Stalls_Percent_6_Bucket_1: 618335
Critical_ROB_Stalls_Percent_6_Bucket_2: 13408
Non-critical_ROB_Stalls_Percent_6_Bucket_2: 451936
Critical_ROB_Stalls_Percent_6_Bucket_3: 19660
Non-critical_ROB_Stalls_Percent_6_Bucket_3: 255156
Critical_ROB_Stalls_Percent_6_Bucket_4: 16979
Non-critical_ROB_Stalls_Percent_6_Bucket_4: 147358
Critical_ROB_Stalls_Percent_6_Bucket_5: 15230
Non-critical_ROB_Stalls_Percent_6_Bucket_5: 132748
Critical_ROB_Stalls_Percent_6_Bucket_6: 215741
Non-critical_ROB_Stalls_Percent_6_Bucket_6: 858399
Critical_ROB_Stalls_Percent_7_Bucket_0: 703
Non-critical_ROB_Stalls_Percent_7_Bucket_0: 490943
Critical_ROB_Stalls_Percent_7_Bucket_1: 3667
Non-critical_ROB_Stalls_Percent_7_Bucket_1: 618335
Critical_ROB_Stalls_Percent_7_Bucket_2: 13408
Non-critical_ROB_Stalls_Percent_7_Bucket_2: 451936
Critical_ROB_Stalls_Percent_7_Bucket_3: 19660
Non-critical_ROB_Stalls_Percent_7_Bucket_3: 255156
Critical_ROB_Stalls_Percent_7_Bucket_4: 16979
Non-critical_ROB_Stalls_Percent_7_Bucket_4: 147358
Critical_ROB_Stalls_Percent_7_Bucket_5: 15230
Non-critical_ROB_Stalls_Percent_7_Bucket_5: 132748
Critical_ROB_Stalls_Percent_7_Bucket_6: 215741
Non-critical_ROB_Stalls_Percent_7_Bucket_6: 858399
Critical_ROB_Stalls_Percent_8_Bucket_0: 703
Non-critical_ROB_Stalls_Percent_8_Bucket_0: 490943
Critical_ROB_Stalls_Percent_8_Bucket_1: 3667
Non-critical_ROB_Stalls_Percent_8_Bucket_1: 618335
Critical_ROB_Stalls_Percent_8_Bucket_2: 13408
Non-critical_ROB_Stalls_Percent_8_Bucket_2: 451936
Critical_ROB_Stalls_Percent_8_Bucket_3: 19660
Non-critical_ROB_Stalls_Percent_8_Bucket_3: 255156
Critical_ROB_Stalls_Percent_8_Bucket_4: 16979
Non-critical_ROB_Stalls_Percent_8_Bucket_4: 147358
Critical_ROB_Stalls_Percent_8_Bucket_5: 15230
Non-critical_ROB_Stalls_Percent_8_Bucket_5: 132748
Critical_ROB_Stalls_Percent_8_Bucket_6: 215741
Non-critical_ROB_Stalls_Percent_8_Bucket_6: 858399
Average ROB occupancy Load Stall Begin: 182.188
Average ROB occupancy Load Stall End: 190.687
Min ROB occupancy Load Stall Begin: 1
Max ROB occupancy Load Stall Begin: 352
Min ROB occupancy Load Stall End: 1
Max ROB occupancy Load Stall End: 352
Average ROB occupancy Critical Load Stall Begin: -nan
Average ROB occupancy Critical Load Stall End: -nan
Min ROB occupancy Critical Load Stall Begin: 400
Max ROB occupancy Critical Load Stall Begin: 0
Min ROB occupancy Critical Load Stall End: 400
Max ROB occupancy Critical Load Stall End: 0
 ROB Load Stall Begin Bucket Count 0: 698445
 ROB Load Stall End Bucket Count 0: 491646
 ROB Critical Load Stall Begin Bucket Count 0: 0
 ROB Critical Load Stall End Bucket Count 0: 0
 ROB Load Stall Begin Bucket Count 1: 558008
 ROB Load Stall End Bucket Count 1: 622002
 ROB Critical Load Stall Begin Bucket Count 1: 0
 ROB Critical Load Stall End Bucket Count 1: 0
 ROB Load Stall Begin Bucket Count 2: 407400
 ROB Load Stall End Bucket Count 2: 465344
 ROB Critical Load Stall Begin Bucket Count 2: 0
 ROB Critical Load Stall End Bucket Count 2: 0
 ROB Load Stall Begin Bucket Count 3: 228081
 ROB Load Stall End Bucket Count 3: 274816
 ROB Critical Load Stall Begin Bucket Count 3: 0
 ROB Critical Load Stall End Bucket Count 3: 0
 ROB Load Stall Begin Bucket Count 4: 152274
 ROB Load Stall End Bucket Count 4: 164337
 ROB Critical Load Stall Begin Bucket Count 4: 0
 ROB Critical Load Stall End Bucket Count 4: 0
 ROB Load Stall Begin Bucket Count 5: 148553
 ROB Load Stall End Bucket Count 5: 147978
 ROB Critical Load Stall Begin Bucket Count 5: 0
 ROB Critical Load Stall End Bucket Count 5: 0
 ROB Load Stall Begin Bucket Count 6: 1047502
 ROB Load Stall End Bucket Count 6: 1074140
 ROB Critical Load Stall Begin Bucket Count 6: 0
 ROB Critical Load Stall End Bucket Count 6: 0
PIST Tag Read Accesses: 0
PIST Read Accesses: 0
PIST Tag Write Accesses: 0
PIST Write Accesses: 0
Criticality detector called times: 0
Max global_stall_cycles_count: 0
Threshold Modified: 0 times, factor: 0
ITLB TOTAL     ACCESS:   10293817  HIT:    9805203  MISS:     488614  HIT %:    95.2533  MISS %:    4.74667   MPKI: 9.77228
ITLB LOAD TRANSLATION ACCESS:    8372702  HIT:    8362403  MISS:      10299  HIT %:     99.877  MISS %:   0.123007   MPKI: 0.20598
ITLB TRANSLATION FROM L1D PREFETCHER ACCESS:    1921115  HIT:    1442800  MISS:     478315  HIT %:    75.1022  MISS %:    24.8978   MPKI: 9.5663
ITLB PREFETCH  REQUESTED:          0  ISSUED:          0  USEFUL:     422151  USELESS:      56163
ITLB USEFUL LOAD PREFETCHES:     422151 PREFETCH ISSUED TO LOWER LEVEL:          0  ACCURACY: inf
ITLB TIMELY PREFETCHES:     422151 LATE PREFETCHES: 289 DROPPED PREFETCHES: 0
ITLB PREFETCHES SAME FILL-ORIGIN LEVEL: 0 DIFFERENT FILL-ORIGIN LEVEL: 0
ITLB AVERAGE MISS LATENCY: 37651.5 cycles
ITLB RQ	ACCESS:   14770982	FORWARD:          0	MERGED:    4422875	TO_CACHE:   10348107

DTLB TOTAL     ACCESS:   10828019  HIT:   10408129  MISS:     419890  HIT %:    96.1222  MISS %:    3.87781   MPKI: 8.3978
DTLB LOAD TRANSLATION ACCESS:   10828019  HIT:   10408129  MISS:     419890  HIT %:    96.1222  MISS %:    3.87781   MPKI: 8.3978
DTLB PREFETCH  REQUESTED:          0  ISSUED:          0  USEFUL:          0  USELESS:          0
DTLB USEFUL LOAD PREFETCHES:          0 PREFETCH ISSUED TO LOWER LEVEL:          0  ACCURACY: -nan
DTLB TIMELY PREFETCHES:          0 LATE PREFETCHES: 0 DROPPED PREFETCHES: 0
DTLB PREFETCHES SAME FILL-ORIGIN LEVEL: 0 DIFFERENT FILL-ORIGIN LEVEL: 0
DTLB AVERAGE MISS LATENCY: 17.6827 cycles
DTLB RQ	ACCESS:   16045995	FORWARD:          0	MERGED:    5134835	TO_CACHE:   10911160

STLB TOTAL     ACCESS:    1506473  HIT:    1473277  MISS:      33196  HIT %:    97.7964  MISS %:    2.20356   MPKI: 0.66392
STLB LOAD TRANSLATION ACCESS:     429900  HIT:     397485  MISS:      32415  HIT %:    92.4599  MISS %:    7.54013   MPKI: 0.6483
STLB TRANSLATION FROM L1D PREFETCHER ACCESS:    1076573  HIT:    1075792  MISS:        781  HIT %:    99.9275  MISS %:   0.072545   MPKI: 0.01562
STLB PREFETCH  REQUESTED:          0  ISSUED:          0  USEFUL:        473  USELESS:        294
STLB USEFUL LOAD PREFETCHES:        473 PREFETCH ISSUED TO LOWER LEVEL:          0  ACCURACY: inf
STLB TIMELY PREFETCHES:        473 LATE PREFETCHES: 0 DROPPED PREFETCHES: 0
STLB PREFETCHES SAME FILL-ORIGIN LEVEL: 0 DIFFERENT FILL-ORIGIN LEVEL: 0
STLB AVERAGE MISS LATENCY: 116.508 cycles
STLB RQ	ACCESS:    1868271	FORWARD:          0	MERGED:     361798	TO_CACHE:    1506473

STLB Hit, L1D data hit: 0
STLB Hit, L2C data hit: 0
STLB Hit, LLC data hit: 0
STLB Hit, LLC data miss: 0
STLB STLB hints to L2: 0
L1D TOTAL     ACCESS:   14576756  HIT:   12505836  MISS:    2070920  HIT %:     85.793  MISS %:     14.207   MPKI: 41.4184
L1D LOAD      ACCESS:    7384724  HIT:    6832488  MISS:     552236  HIT %:    92.5219  MISS %:    7.47809   MPKI: 11.0447
L1D RFO       ACCESS:    6245584  HIT:    5287723  MISS:     957861  HIT %:    84.6634  MISS %:    15.3366   MPKI: 19.1572
L1D PREFETCH  ACCESS:     946448  HIT:     385625  MISS:     560823  HIT %:    40.7444  MISS %:    59.2556   MPKI: 11.2165
L1D PREFETCH  REQUESTED:    1954868  ISSUED:    1919548  USEFUL:     318938  USELESS:     241856
L1D USEFUL LOAD PREFETCHES:     318938 PREFETCH ISSUED TO LOWER LEVEL:     569750  ACCURACY: 55.9786
L1D TIMELY PREFETCHES:     318938 LATE PREFETCHES: 8908 DROPPED PREFETCHES: 0
L1D PREFETCHES SAME FILL-ORIGIN LEVEL: 569750 DIFFERENT FILL-ORIGIN LEVEL: 0
L1D AVERAGE MISS LATENCY: 270500 cycles
L1D RQ	ACCESS:   11046758	FORWARD:          0	MERGED:    3504519	TO_CACHE:    7422744
L1D WQ	ACCESS:    8713552	FORWARD:     119507	MERGED:      90301	TO_CACHE:    8623251
L1D PQ	ACCESS:     959781	FORWARD:          0	MERGED:          2	TO_CACHE:     959767

L1D UNIQUE REGIONS ACCESSED: 0
L1D REGIONS CONFLICTS: 0
L1D Cross Page Prefetch Requests: 0
L1D Same Page Prefetch Requests: 1385451
L1D ROI Sum of L1D PQ occupancy: 25107474
L1D PREFETCHES PUSHED FROM L2C: 0
L1I TOTAL     ACCESS:   14701504  HIT:   11598869  MISS:    3102635  HIT %:    78.8958  MISS %:    21.1042   MPKI: 62.0527
L1I LOAD      ACCESS:    9770494  HIT:    9751913  MISS:      18581  HIT %:    99.8098  MISS %:   0.190175   MPKI: 0.37162
L1I PREFETCH  ACCESS:    4931010  HIT:    1846956  MISS:    3084054  HIT %:    37.4559  MISS %:    62.5441   MPKI: 61.6811
L1I PREFETCH  REQUESTED:    5181662  ISSUED:    5178095  USEFUL:    2596642  USELESS:     487469
L1I USEFUL LOAD PREFETCHES:    2596642 PREFETCH ISSUED TO LOWER LEVEL:    3090261  ACCURACY: 84.0266
L1I TIMELY PREFETCHES:    2596642 LATE PREFETCHES: 6164 DROPPED PREFETCHES: 0
L1I PREFETCHES SAME FILL-ORIGIN LEVEL: 3090261 DIFFERENT FILL-ORIGIN LEVEL: 0
L1I AVERAGE MISS LATENCY: 118248 cycles
L1I RQ	ACCESS:   14074042	FORWARD:          0	MERGED:    4299792	TO_CACHE:    9774250
L1I PQ	ACCESS:    5178095	FORWARD:          0	MERGED:     181363	TO_CACHE:    4996732

BTB TOTAL     ACCESS:    5333119  HIT:    5067879  MISS:     265240  HIT %:    95.0266  MISS %:    4.97345   MPKI: 5.3048
BTB BRANCH_DIRECT_JUMP	ACCESS:     458219  HIT:     456490  MISS:       1729
BTB BRANCH_INDIRECT	ACCESS:      49088  HIT:      48920  MISS:        168
BTB BRANCH_CONDITIONAL	ACCESS:    3001358  HIT:    2995715  MISS:       5643
BTB BRANCH_DIRECT_CALL	ACCESS:     745129  HIT:     741537  MISS:       3592
BTB BRANCH_INDIRECT_CALL	ACCESS:     167106  HIT:     138209  MISS:      28897
BTB BRANCH_RETURN	ACCESS:     912219  HIT:     687008  MISS:     225211
BTB BRANCH_OTHER ACCESS:          0  HIT:          0  MISS:          0

L2C TOTAL     ACCESS:    6365712  HIT:    4429624  MISS:    1936088  HIT %:    69.5857  MISS %:    30.4143   MPKI: 38.7218
L2C LOAD      ACCESS:     555726  HIT:     206148  MISS:     349578  HIT %:    37.0953  MISS %:    62.9047   MPKI: 6.99156
L2C DATA LOAD MPKI: 6.89838
L2C INSTRUCTION LOAD MPKI: 0.09318
L2C RFO       ACCESS:     957838  HIT:      32947  MISS:     924891  HIT %:    3.43973  MISS %:    96.5603   MPKI: 18.4978
L2C PREFETCH  ACCESS:    3659958  HIT:    3052215  MISS:     607743  HIT %:    83.3948  MISS %:    16.6052   MPKI: 12.1549
L2C DATA PREFETCH MPKI: 8.95876
L2C INSTRUCTION PREFETCH MPKI: 3.1961
L2C WRITEBACK ACCESS:    1155438  HIT:    1121825  MISS:      33613  HIT %:    97.0909  MISS %:    2.90911   MPKI: 0.67226
L2C LOAD TRANSLATION ACCESS:      35626  HIT:      16203  MISS:      19423  HIT %:    45.4808  MISS %:    54.5192   MPKI: 0.38846
L2C TRANSLATION FROM L1D PREFETCHER ACCESS:       1126  HIT:        286  MISS:        840  HIT %:    25.3996  MISS %:    74.6004   MPKI: 0.0168
L2C PREFETCH  REQUESTED:          0  ISSUED:          0  USEFUL:       6717  USELESS:     601173
L2C USEFUL LOAD PREFETCHES:       6717 PREFETCH ISSUED TO LOWER LEVEL:     607742  ACCURACY: 1.10524
L2C TIMELY PREFETCHES:       6717 LATE PREFETCHES: 0 DROPPED PREFETCHES: 0
L2C PREFETCHES SAME FILL-ORIGIN LEVEL: 0 DIFFERENT FILL-ORIGIN LEVEL: 0
L2C AVERAGE MISS LATENCY: 160.973 cycles
L2C RQ	ACCESS:    1550347	FORWARD:          0	MERGED:          0	TO_CACHE:    1550316
L2C WQ	ACCESS:    1155438	FORWARD:         32	MERGED:          0	TO_CACHE:    1155438
L2C PQ	ACCESS:    3659958	FORWARD:          0	MERGED:          0	TO_CACHE:    3659957

L2C Instructions Evicting Data 149450
L2C Translations Evicting Data 18483
L2C Data Evicting Data 1553416
L2C Instructions Evicting Instructions 13488
L2C Translations Evicting Instructions 1536
L2C Data Evicting Instructions 146109
L2C Instructions Evicting Translations 1526
L2C Translations Evicting Translations 244
L2C Data Evicting Translations 18223
L2C Dense regions hint from L2: 0
PSCL5 TOTAL     ACCESS:      33196  HIT:      33196  MISS:          0  HIT %:        100  MISS %:          0   MPKI: 0
PSCL5 LOAD TRANSLATION ACCESS:      32415  HIT:      32415  MISS:          0  HIT %:        100  MISS %:          0   MPKI: 0
PSCL5 TRANSLATION FROM L1D PREFETCHER ACCESS:        781  HIT:        781  MISS:          0  HIT %:        100  MISS %:          0   MPKI: 0
PSCL5 PREFETCH  REQUESTED:          0  ISSUED:          0  USEFUL:          0  USELESS:          0
PSCL5 USEFUL LOAD PREFETCHES:          0 PREFETCH ISSUED TO LOWER LEVEL:          0  ACCURACY: -nan
PSCL5 TIMELY PREFETCHES:          0 LATE PREFETCHES: 0 DROPPED PREFETCHES: 0
PSCL5 PREFETCHES SAME FILL-ORIGIN LEVEL: 0 DIFFERENT FILL-ORIGIN LEVEL: 0

PSCL4 TOTAL     ACCESS:      32611  HIT:      32512  MISS:         99  HIT %:    99.6964  MISS %:   0.303579   MPKI: 0.00198
PSCL4 LOAD TRANSLATION ACCESS:      31865  HIT:      31766  MISS:         99  HIT %:    99.6893  MISS %:   0.310686   MPKI: 0.00198
PSCL4 TRANSLATION FROM L1D PREFETCHER ACCESS:        746  HIT:        746  MISS:          0  HIT %:        100  MISS %:          0   MPKI: 0
PSCL4 PREFETCH  REQUESTED:          0  ISSUED:          0  USEFUL:          0  USELESS:          0
PSCL4 USEFUL LOAD PREFETCHES:          0 PREFETCH ISSUED TO LOWER LEVEL:          0  ACCURACY: -nan
PSCL4 TIMELY PREFETCHES:          0 LATE PREFETCHES: 0 DROPPED PREFETCHES: 0
PSCL4 PREFETCHES SAME FILL-ORIGIN LEVEL: 0 DIFFERENT FILL-ORIGIN LEVEL: 0

PSCL3 TOTAL     ACCESS:      32903  HIT:      32804  MISS:         99  HIT %:    99.6991  MISS %:   0.300884   MPKI: 0.00198
PSCL3 LOAD TRANSLATION ACCESS:      32157  HIT:      32058  MISS:         99  HIT %:    99.6921  MISS %:   0.307865   MPKI: 0.00198
PSCL3 TRANSLATION FROM L1D PREFETCHER ACCESS:        746  HIT:        746  MISS:          0  HIT %:        100  MISS %:          0   MPKI: 0
PSCL3 PREFETCH  REQUESTED:          0  ISSUED:          0  USEFUL:          0  USELESS:          0
PSCL3 USEFUL LOAD PREFETCHES:          0 PREFETCH ISSUED TO LOWER LEVEL:          0  ACCURACY: -nan
PSCL3 TIMELY PREFETCHES:          0 LATE PREFETCHES: 0 DROPPED PREFETCHES: 0
PSCL3 PREFETCHES SAME FILL-ORIGIN LEVEL: 0 DIFFERENT FILL-ORIGIN LEVEL: 0

PSCL2 TOTAL     ACCESS:      33196  HIT:      29815  MISS:       3381  HIT %:     89.815  MISS %:     10.185   MPKI: 0.06762
PSCL2 LOAD TRANSLATION ACCESS:      32700  HIT:      29319  MISS:       3381  HIT %:    89.6606  MISS %:    10.3394   MPKI: 0.06762
PSCL2 TRANSLATION FROM L1D PREFETCHER ACCESS:        496  HIT:        496  MISS:          0  HIT %:        100  MISS %:          0   MPKI: 0
PSCL2 PREFETCH  REQUESTED:          0  ISSUED:          0  USEFUL:          0  USELESS:          0
PSCL2 USEFUL LOAD PREFETCHES:          0 PREFETCH ISSUED TO LOWER LEVEL:          0  ACCURACY: -nan
PSCL2 TIMELY PREFETCHES:          0 LATE PREFETCHES: 0 DROPPED PREFETCHES: 0
PSCL2 PREFETCHES SAME FILL-ORIGIN LEVEL: 0 DIFFERENT FILL-ORIGIN LEVEL: 0

LLC TOTAL     ACCESS:    2980705  HIT:    1169195  MISS:    1811510  HIT %:    39.2255  MISS %:    60.7745   MPKI: 36.2302
LLC LOAD      ACCESS:     349573  HIT:     281625  MISS:      67948  HIT %:    80.5626  MISS %:    19.4374   MPKI: 1.35896
LLC RFO       ACCESS:     924891  HIT:     257134  MISS:     667757  HIT %:    27.8015  MISS %:    72.1985   MPKI: 13.3551
LLC PREFETCH  ACCESS:     607743  HIT:     205517  MISS:     402226  HIT %:    33.8164  MISS %:    66.1836   MPKI: 8.04452
LLC WRITEBACK ACCESS:    1078235  HIT:     410887  MISS:     667348  HIT %:    38.1074  MISS %:    61.8926   MPKI: 13.347
LLC LOAD TRANSLATION ACCESS:      19423  HIT:      13777  MISS:       5646  HIT %:    70.9314  MISS %:    29.0686   MPKI: 0.11292
LLC TRANSLATION FROM L1D PREFETCHER ACCESS:        840  HIT:        255  MISS:        585  HIT %:    30.3571  MISS %:    69.6429   MPKI: 0.0117
LLC PREFETCH  REQUESTED:          0  ISSUED:          0  USEFUL:        560  USELESS:     401514
LLC USEFUL LOAD PREFETCHES:        560 PREFETCH ISSUED TO LOWER LEVEL:     402226  ACCURACY: 0.139225
LLC TIMELY PREFETCHES:        560 LATE PREFETCHES: 0 DROPPED PREFETCHES: 0
LLC PREFETCHES SAME FILL-ORIGIN LEVEL: 0 DIFFERENT FILL-ORIGIN LEVEL: 0
LLC AVERAGE MISS LATENCY: 139.055 cycles
LLC RQ	ACCESS:    1294732	FORWARD:          0	MERGED:          0	TO_CACHE:    1294727
LLC WQ	ACCESS:    1078235	FORWARD:          5	MERGED:          0	TO_CACHE:    1078235
LLC PQ	ACCESS:     607742	FORWARD:          0	MERGED:          0	TO_CACHE:     607742

LLC Dense regions hint to LLC: 0

RAW hits: 1358114
Loads Generated: 12404873
Loads sent to L1D: 11046758
Stores Generated: 8713495
Stores sent to L1D: 8713552
Major fault: 0 Minor fault: 22230
Allocated PAGES: 22230
I-Shadow cache 408 bytes
Touched + WorthPF tables 6144 bytes 
MMA filter 174 bytes 
FNL filter 272 bytes 
TOTAL PREFETCHER STORAGE SIZE: 25174 bytes
CPU 0 L1I next line prefetcher final stats

stream: 
stream:times selected: 1859963
stream:pref_filled: 773670
stream:pref_useful: 528758
stream:pref_late: 9277
stream:misses: 6591
stream:misses_by_poll: 0

CS: 
CS:times selected: 1504208
CS:pref_filled: 3831
CS:pref_useful: 3639
CS:pref_late: 871
CS:misses: 9972
CS:misses_by_poll: 17

CPLX: 
CPLX:times selected: 353894
CPLX:pref_filled: 62404
CPLX:pref_useful: 31083
CPLX:pref_late: 226
CPLX:misses: 26969
CPLX:misses_by_poll: 111

NL_L1: 
NL:times selected: 301
NL:pref_filled: 165
NL:pref_useful: 50
NL:pref_late: 19
NL:misses: 105
NL:misses_by_poll: 0

total selections: 3718366
total_filled: 560823
total_useful: 318938
total_late: 10921
total_polluted: 128
total_misses_after_warmup: 79948
conflicts: 126144
Degree Incremented Times: 23886
Degree Decremented Times: 0

L1 IP Table Write Accesses: 1850778
L1 IP Table Read Accesses: 1724634
L1 RST Write Accesses: 1520501
L1 RST Read Accesses: 3041002
L1 CSPT Write Accesses: 1520501
L1 CSPT Read Accesses: 1829564
L1 RR Filter Tag Write Accesses: 995101
L1 RR Filter Tag Read Accesses: 379676529
L1 IP Table Tag Write Accesses: 2025020
L1 IP Table Tag Read Accesses: 2025020
L1 RST Tag Write Accesses: 0
L1 RST Tag Read Accesses: 13757359
L1 RR Filter Write Accesses: 0
L1 RR Filter Read Accesses: 13008933
test: 107609

DRAM Statistics
 CHANNEL 0
 RQ ROW_BUFFER_HIT:     497377  ROW_BUFFER_MISS:     646698
 DBUS_CONGESTED:        583
 WQ ROW_BUFFER_HIT:     155821  ROW_BUFFER_MISS:     547839  FULL:      11497

 AVG_CONGESTED_CYCLE: 3
 All warmup complete: 2
Channel 0 Bank busy for read cycles: 0
Channel 0 Bank busy for write cycles: 0
Channel 0
Rank 0
0banks busy for read cycles: 24433853
0banks busy for write cycles: 52721
1banks busy for read cycles: 13412482
1banks busy for write cycles: 7559543
2banks busy for read cycles: 9983951
2banks busy for write cycles: 3319023
3banks busy for read cycles: 4383935
3banks busy for write cycles: 1826230
4banks busy for read cycles: 3172979
4banks busy for write cycles: 1369775
5banks busy for read cycles: 1495187
5banks busy for write cycles: 1227193
6banks busy for read cycles: 1793245
6banks busy for write cycles: 1276404
7banks busy for read cycles: 1816767
7banks busy for write cycles: 1961511
8banks busy for read cycles: 4233092
8banks busy for write cycles: 8883316

CPU 0 Branch Prediction Accuracy: 99.712% MPKI: 0.47638 Average ROB Occupancy at Mispredict: 94.8269
Branch types
NOT_BRANCH: 41729381 83.4588%
BRANCH_DIRECT_JUMP: 458219 0.916438%
BRANCH_INDIRECT: 49088 0.098176%
BRANCH_CONDITIONAL: 5938510 11.877%
BRANCH_DIRECT_CALL: 745129 1.49026%
BRANCH_INDIRECT_CALL: 167106 0.334212%
BRANCH_RETURN: 912219 1.82444%
BRANCH_OTHER: 0 0%

DRAM PAGES: 1048576
Allocated PAGES: 22230
