
*** ChampSim Multicore Out-of-Order Simulator ***

Warmup Instructions: 50000000
Simulation Instructions: 50000000
Number of CPUs: 1
LLC sets: 2048
LLC ways: 16
Off-chip DRAM Size: 4096 MB Channels: 1 Width: 64-bit Data Rate: 6400 MT/s
CPU 0 runs ../IPC-traces//server_014.champsimtrace.xz
.xz
BTB has LRU replacement policy
ITLB has LRU replacement policy
DTLB has LRU replacement policy
STLB has LRU replacement policy
CPU 0 L1I next line prefetcher
L1I has LRU replacement policy
L1D has LRU replacement policy
Bingo PHT WAYS: 16 and PHT_SIZE: 16384
Initialize SRRIP state for L2C
Initialize DRRIP state for LLC
Heartbeat CPU 0 instructions: 10000003 cycles: 2819477 heartbeat IPC: 3.54676 cumulative IPC: 3.54676 (Simulation time: 0 hr 3 min 18 sec) 
Heartbeat CPU 0 instructions: 20000002 cycles: 5667864 heartbeat IPC: 3.51076 cumulative IPC: 3.52867 (Simulation time: 0 hr 6 min 39 sec) 
Heartbeat CPU 0 instructions: 30000003 cycles: 8493348 heartbeat IPC: 3.53922 cumulative IPC: 3.53218 (Simulation time: 0 hr 10 min 8 sec) 
Heartbeat CPU 0 instructions: 40000002 cycles: 11320901 heartbeat IPC: 3.53663 cumulative IPC: 3.53329 (Simulation time: 0 hr 13 min 15 sec) 
Heartbeat CPU 0 instructions: 50000002 cycles: 14148257 heartbeat IPC: 3.53687 cumulative IPC: 3.534 (Simulation time: 0 hr 16 min 6 sec) 

Warmup complete CPU 0 instructions: 50000002 cycles: 14148257 (Simulation time: 0 hr 16 min 6 sec) 

Heartbeat CPU 0 instructions: 60000000 cycles: 27453136 heartbeat IPC: 0.751604 cumulative IPC: 0.751604 (Simulation time: 0 hr 19 min 28 sec) 
Heartbeat CPU 0 instructions: 70000000 cycles: 40734836 heartbeat IPC: 0.752916 cumulative IPC: 0.752259 (Simulation time: 0 hr 22 min 41 sec) 
*** Reached end of trace for Core: 0 Repeating trace: ../IPC-traces//server_014.champsimtrace.xz
Heartbeat CPU 0 instructions: 80000001 cycles: 54040498 heartbeat IPC: 0.75156 cumulative IPC: 0.752026 (Simulation time: 0 hr 26 min 0 sec) 
Heartbeat CPU 0 instructions: 90000003 cycles: 68464143 heartbeat IPC: 0.693306 cumulative IPC: 0.736433 (Simulation time: 0 hr 29 min 29 sec) 
Heartbeat CPU 0 instructions: 100000000 cycles: 81919469 heartbeat IPC: 0.7432 cumulative IPC: 0.737776 (Simulation time: 0 hr 32 min 31 sec) 
Finished CPU 0 instructions: 50000003 cycles: 67771222 cumulative IPC: 0.737776 (Simulation time: 0 hr 32 min 31 sec) 

ChampSim completed all CPUs

Region of Interest Statistics

CPU 0 cumulative IPC: 0.737776 instructions: 50000003 cycles: 67771222

CPU 0 Average Load ROB stall cycles: 1.76059e+07
CPU 0 Fraction of times ROB stalled by Loads: 36.8854
CPU 0 Percentage of Load stall cycles in Total stall cycles: 2.54683e+08
Issued all: 28751770
Issued LT all: 22697770
rob_not_full_when_issued_lt_all: 18467183
Issued LT one: 18105466
rob_not_full_when_issued_lt_one: 14221518
 Total stall cycles: 55793221
 Total load stall cycles: 142096116348072
Unique Load IPs: 15597
CPU 0 NUM of IPS identified critical: 0
CPU 0 Num of Load IPs stalling ROB: 0
Threshold modification factor: 0
Trouble in retire width: -nan
MaC = Marked as critical.
lt_50_percent_before_Mac: 0
gt_90_percent_before_Mac: 0
gt_75_percent_before_Mac: 0
gt_50_percent_before_Mac: 0
stall_proportion_bin_same_before_after: 0
stall_proportion_bin_lower_before_after: 0
stall_proportion_bin_upper_before_after: 0
average_stall_proportion_before: -nan
average_stall_proportion_after: -nan
Critical_IP_Detector_Accuracy_70: -nan
Critical_IP_Detector_Accuracy_80: -nan
Critical_IP_Detector_Accuracy_90: -nan
Critical_IP_Detector_Coverage_70: 0
Critical_IP_Detector_Coverage_80: 0
Critical_IP_Detector_Coverage_90: 0
stat_90_percent_critical_ip_stalls_freq: 151169
stat_90_percent_non_critical_ip_stalls_freq: 18446744073709400447
AVERAGE_ROB_Occupancy_90_Percent_Critical_IP_Stalls: 272.76
AVERAGE_ROB_Occupancy_90_Percent_Non_Critical_IP_Stalls: 1.54013e-11
Critical_IP_ROB_Stalls_Bucket_0: 0
Non-critical_IP_ROB_Stalls_Bucket_0: 923230
Critical_IP_ROB_Stalls_Bucket_1: 0
Non-critical_IP_ROB_Stalls_Bucket_1: 982349
Critical_IP_ROB_Stalls_Bucket_2: 0
Non-critical_IP_ROB_Stalls_Bucket_2: 446903
Critical_IP_ROB_Stalls_Bucket_3: 0
Non-critical_IP_ROB_Stalls_Bucket_3: 152339
Critical_IP_ROB_Stalls_Bucket_4: 0
Non-critical_IP_ROB_Stalls_Bucket_4: 94370
Critical_IP_ROB_Stalls_Bucket_5: 0
Non-critical_IP_ROB_Stalls_Bucket_5: 88897
Critical_IP_ROB_Stalls_Bucket_6: 0
Non-critical_IP_ROB_Stalls_Bucket_6: 288902
0 => IPs accounting for >50 percent of stalls, 1 => 55, 2 => 60, 3 => 65 and so on till 90.
percent50: inf num IPs:  1
percent55: inf num IPs: 1
percent60: inf num IPs: 1
percent65: inf num IPs: 1
percent70: inf num IPs: 1
percent75: inf num IPs: 1
percent80: inf num IPs: 1
percent85: inf num IPs: 1
percent90: inf num IPs: 1
Critical_ROB_Stalls_Percent_0_Bucket_0: 2
Non-critical_ROB_Stalls_Percent_0_Bucket_0: 923228
Critical_ROB_Stalls_Percent_0_Bucket_1: 18
Non-critical_ROB_Stalls_Percent_0_Bucket_1: 982331
Critical_ROB_Stalls_Percent_0_Bucket_2: 9241
Non-critical_ROB_Stalls_Percent_0_Bucket_2: 437662
Critical_ROB_Stalls_Percent_0_Bucket_3: 25145
Non-critical_ROB_Stalls_Percent_0_Bucket_3: 127194
Critical_ROB_Stalls_Percent_0_Bucket_4: 24599
Non-critical_ROB_Stalls_Percent_0_Bucket_4: 69771
Critical_ROB_Stalls_Percent_0_Bucket_5: 21949
Non-critical_ROB_Stalls_Percent_0_Bucket_5: 66948
Critical_ROB_Stalls_Percent_0_Bucket_6: 70215
Non-critical_ROB_Stalls_Percent_0_Bucket_6: 218687
Critical_ROB_Stalls_Percent_1_Bucket_0: 2
Non-critical_ROB_Stalls_Percent_1_Bucket_0: 923228
Critical_ROB_Stalls_Percent_1_Bucket_1: 18
Non-critical_ROB_Stalls_Percent_1_Bucket_1: 982331
Critical_ROB_Stalls_Percent_1_Bucket_2: 9241
Non-critical_ROB_Stalls_Percent_1_Bucket_2: 437662
Critical_ROB_Stalls_Percent_1_Bucket_3: 25145
Non-critical_ROB_Stalls_Percent_1_Bucket_3: 127194
Critical_ROB_Stalls_Percent_1_Bucket_4: 24599
Non-critical_ROB_Stalls_Percent_1_Bucket_4: 69771
Critical_ROB_Stalls_Percent_1_Bucket_5: 21949
Non-critical_ROB_Stalls_Percent_1_Bucket_5: 66948
Critical_ROB_Stalls_Percent_1_Bucket_6: 70215
Non-critical_ROB_Stalls_Percent_1_Bucket_6: 218687
Critical_ROB_Stalls_Percent_2_Bucket_0: 2
Non-critical_ROB_Stalls_Percent_2_Bucket_0: 923228
Critical_ROB_Stalls_Percent_2_Bucket_1: 18
Non-critical_ROB_Stalls_Percent_2_Bucket_1: 982331
Critical_ROB_Stalls_Percent_2_Bucket_2: 9241
Non-critical_ROB_Stalls_Percent_2_Bucket_2: 437662
Critical_ROB_Stalls_Percent_2_Bucket_3: 25145
Non-critical_ROB_Stalls_Percent_2_Bucket_3: 127194
Critical_ROB_Stalls_Percent_2_Bucket_4: 24599
Non-critical_ROB_Stalls_Percent_2_Bucket_4: 69771
Critical_ROB_Stalls_Percent_2_Bucket_5: 21949
Non-critical_ROB_Stalls_Percent_2_Bucket_5: 66948
Critical_ROB_Stalls_Percent_2_Bucket_6: 70215
Non-critical_ROB_Stalls_Percent_2_Bucket_6: 218687
Critical_ROB_Stalls_Percent_3_Bucket_0: 2
Non-critical_ROB_Stalls_Percent_3_Bucket_0: 923228
Critical_ROB_Stalls_Percent_3_Bucket_1: 18
Non-critical_ROB_Stalls_Percent_3_Bucket_1: 982331
Critical_ROB_Stalls_Percent_3_Bucket_2: 9241
Non-critical_ROB_Stalls_Percent_3_Bucket_2: 437662
Critical_ROB_Stalls_Percent_3_Bucket_3: 25145
Non-critical_ROB_Stalls_Percent_3_Bucket_3: 127194
Critical_ROB_Stalls_Percent_3_Bucket_4: 24599
Non-critical_ROB_Stalls_Percent_3_Bucket_4: 69771
Critical_ROB_Stalls_Percent_3_Bucket_5: 21949
Non-critical_ROB_Stalls_Percent_3_Bucket_5: 66948
Critical_ROB_Stalls_Percent_3_Bucket_6: 70215
Non-critical_ROB_Stalls_Percent_3_Bucket_6: 218687
Critical_ROB_Stalls_Percent_4_Bucket_0: 2
Non-critical_ROB_Stalls_Percent_4_Bucket_0: 923228
Critical_ROB_Stalls_Percent_4_Bucket_1: 18
Non-critical_ROB_Stalls_Percent_4_Bucket_1: 982331
Critical_ROB_Stalls_Percent_4_Bucket_2: 9241
Non-critical_ROB_Stalls_Percent_4_Bucket_2: 437662
Critical_ROB_Stalls_Percent_4_Bucket_3: 25145
Non-critical_ROB_Stalls_Percent_4_Bucket_3: 127194
Critical_ROB_Stalls_Percent_4_Bucket_4: 24599
Non-critical_ROB_Stalls_Percent_4_Bucket_4: 69771
Critical_ROB_Stalls_Percent_4_Bucket_5: 21949
Non-critical_ROB_Stalls_Percent_4_Bucket_5: 66948
Critical_ROB_Stalls_Percent_4_Bucket_6: 70215
Non-critical_ROB_Stalls_Percent_4_Bucket_6: 218687
Critical_ROB_Stalls_Percent_5_Bucket_0: 2
Non-critical_ROB_Stalls_Percent_5_Bucket_0: 923228
Critical_ROB_Stalls_Percent_5_Bucket_1: 18
Non-critical_ROB_Stalls_Percent_5_Bucket_1: 982331
Critical_ROB_Stalls_Percent_5_Bucket_2: 9241
Non-critical_ROB_Stalls_Percent_5_Bucket_2: 437662
Critical_ROB_Stalls_Percent_5_Bucket_3: 25145
Non-critical_ROB_Stalls_Percent_5_Bucket_3: 127194
Critical_ROB_Stalls_Percent_5_Bucket_4: 24599
Non-critical_ROB_Stalls_Percent_5_Bucket_4: 69771
Critical_ROB_Stalls_Percent_5_Bucket_5: 21949
Non-critical_ROB_Stalls_Percent_5_Bucket_5: 66948
Critical_ROB_Stalls_Percent_5_Bucket_6: 70215
Non-critical_ROB_Stalls_Percent_5_Bucket_6: 218687
Critical_ROB_Stalls_Percent_6_Bucket_0: 2
Non-critical_ROB_Stalls_Percent_6_Bucket_0: 923228
Critical_ROB_Stalls_Percent_6_Bucket_1: 18
Non-critical_ROB_Stalls_Percent_6_Bucket_1: 982331
Critical_ROB_Stalls_Percent_6_Bucket_2: 9241
Non-critical_ROB_Stalls_Percent_6_Bucket_2: 437662
Critical_ROB_Stalls_Percent_6_Bucket_3: 25145
Non-critical_ROB_Stalls_Percent_6_Bucket_3: 127194
Critical_ROB_Stalls_Percent_6_Bucket_4: 24599
Non-critical_ROB_Stalls_Percent_6_Bucket_4: 69771
Critical_ROB_Stalls_Percent_6_Bucket_5: 21949
Non-critical_ROB_Stalls_Percent_6_Bucket_5: 66948
Critical_ROB_Stalls_Percent_6_Bucket_6: 70215
Non-critical_ROB_Stalls_Percent_6_Bucket_6: 218687
Critical_ROB_Stalls_Percent_7_Bucket_0: 2
Non-critical_ROB_Stalls_Percent_7_Bucket_0: 923228
Critical_ROB_Stalls_Percent_7_Bucket_1: 18
Non-critical_ROB_Stalls_Percent_7_Bucket_1: 982331
Critical_ROB_Stalls_Percent_7_Bucket_2: 9241
Non-critical_ROB_Stalls_Percent_7_Bucket_2: 437662
Critical_ROB_Stalls_Percent_7_Bucket_3: 25145
Non-critical_ROB_Stalls_Percent_7_Bucket_3: 127194
Critical_ROB_Stalls_Percent_7_Bucket_4: 24599
Non-critical_ROB_Stalls_Percent_7_Bucket_4: 69771
Critical_ROB_Stalls_Percent_7_Bucket_5: 21949
Non-critical_ROB_Stalls_Percent_7_Bucket_5: 66948
Critical_ROB_Stalls_Percent_7_Bucket_6: 70215
Non-critical_ROB_Stalls_Percent_7_Bucket_6: 218687
Critical_ROB_Stalls_Percent_8_Bucket_0: 2
Non-critical_ROB_Stalls_Percent_8_Bucket_0: 923228
Critical_ROB_Stalls_Percent_8_Bucket_1: 18
Non-critical_ROB_Stalls_Percent_8_Bucket_1: 982331
Critical_ROB_Stalls_Percent_8_Bucket_2: 9241
Non-critical_ROB_Stalls_Percent_8_Bucket_2: 437662
Critical_ROB_Stalls_Percent_8_Bucket_3: 25145
Non-critical_ROB_Stalls_Percent_8_Bucket_3: 127194
Critical_ROB_Stalls_Percent_8_Bucket_4: 24599
Non-critical_ROB_Stalls_Percent_8_Bucket_4: 69771
Critical_ROB_Stalls_Percent_8_Bucket_5: 21949
Non-critical_ROB_Stalls_Percent_8_Bucket_5: 66948
Critical_ROB_Stalls_Percent_8_Bucket_6: 70215
Non-critical_ROB_Stalls_Percent_8_Bucket_6: 218687
Average ROB occupancy Load Stall Begin: 100.888
Average ROB occupancy Load Stall End: 109.284
Min ROB occupancy Load Stall Begin: 1
Max ROB occupancy Load Stall Begin: 352
Min ROB occupancy Load Stall End: 1
Max ROB occupancy Load Stall End: 352
Average ROB occupancy Critical Load Stall Begin: -nan
Average ROB occupancy Critical Load Stall End: -nan
Min ROB occupancy Critical Load Stall Begin: 400
Max ROB occupancy Critical Load Stall Begin: 0
Min ROB occupancy Critical Load Stall End: 400
Max ROB occupancy Critical Load Stall End: 0
 ROB Load Stall Begin Bucket Count 0: 1227890
 ROB Load Stall End Bucket Count 0: 923230
 ROB Critical Load Stall Begin Bucket Count 0: 0
 ROB Critical Load Stall End Bucket Count 0: 0
 ROB Load Stall Begin Bucket Count 1: 806104
 ROB Load Stall End Bucket Count 1: 982349
 ROB Critical Load Stall Begin Bucket Count 1: 0
 ROB Critical Load Stall End Bucket Count 1: 0
 ROB Load Stall Begin Bucket Count 2: 346761
 ROB Load Stall End Bucket Count 2: 446903
 ROB Critical Load Stall Begin Bucket Count 2: 0
 ROB Critical Load Stall End Bucket Count 2: 0
 ROB Load Stall Begin Bucket Count 3: 134963
 ROB Load Stall End Bucket Count 3: 152339
 ROB Critical Load Stall Begin Bucket Count 3: 0
 ROB Critical Load Stall End Bucket Count 3: 0
 ROB Load Stall Begin Bucket Count 4: 89632
 ROB Load Stall End Bucket Count 4: 94370
 ROB Critical Load Stall Begin Bucket Count 4: 0
 ROB Critical Load Stall End Bucket Count 4: 0
 ROB Load Stall Begin Bucket Count 5: 90288
 ROB Load Stall End Bucket Count 5: 88897
 ROB Critical Load Stall Begin Bucket Count 5: 0
 ROB Critical Load Stall End Bucket Count 5: 0
 ROB Load Stall Begin Bucket Count 6: 281352
 ROB Load Stall End Bucket Count 6: 288902
 ROB Critical Load Stall Begin Bucket Count 6: 0
 ROB Critical Load Stall End Bucket Count 6: 0
PIST Tag Read Accesses: 0
PIST Read Accesses: 0
PIST Tag Write Accesses: 0
PIST Write Accesses: 0
Criticality detector called times: 0
Max global_stall_cycles_count: 0
Threshold Modified: 0 times, factor: 0
Sturdy critical IP cache stats: 
 Unused entries: 0
CIC Tag Read Accesses: 0
CIC Read Accesses: 0
CIC Tag Write Accesses: 0
CIC Write Accesses: 0
Wobbly critical IP cache stats: 
 Unused entries: 25
CIC Tag Read Accesses: 159361170
CIC Read Accesses: 0
CIC Tag Write Accesses: 7059
CIC Write Accesses: 0
ITLB TOTAL     ACCESS:   10435457  HIT:   10033880  MISS:     401577  HIT %:    96.1518  MISS %:     3.8482   MPKI: 8.03154
ITLB LOAD TRANSLATION ACCESS:    8220798  HIT:    8180547  MISS:      40251  HIT %:    99.5104  MISS %:   0.489624   MPKI: 0.80502
ITLB TRANSLATION FROM L1D PREFETCHER ACCESS:    2214659  HIT:    1853333  MISS:     361326  HIT %:    83.6848  MISS %:    16.3152   MPKI: 7.22652
ITLB PREFETCH  REQUESTED:          0  ISSUED:          0  USEFUL:     318580  USELESS:      42745
ITLB USEFUL LOAD PREFETCHES:     318580 PREFETCH ISSUED TO LOWER LEVEL:          0  ACCURACY: inf
ITLB TIMELY PREFETCHES:     318580 LATE PREFETCHES: 1054 DROPPED PREFETCHES: 27
ITLB PREFETCHES SAME FILL-ORIGIN LEVEL: 0 DIFFERENT FILL-ORIGIN LEVEL: 0
ITLB AVERAGE MISS LATENCY: 199353 cycles
ITLB RQ	ACCESS:   15324332	FORWARD:          0	MERGED:    4841929	TO_CACHE:   10482403

DTLB TOTAL     ACCESS:   10788652  HIT:   10598394  MISS:     190258  HIT %:    98.2365  MISS %:     1.7635   MPKI: 3.80516
DTLB LOAD TRANSLATION ACCESS:   10788652  HIT:   10598394  MISS:     190258  HIT %:    98.2365  MISS %:     1.7635   MPKI: 3.80516
DTLB PREFETCH  REQUESTED:          0  ISSUED:          0  USEFUL:          0  USELESS:          0
DTLB USEFUL LOAD PREFETCHES:          0 PREFETCH ISSUED TO LOWER LEVEL:          0  ACCURACY: -nan
DTLB TIMELY PREFETCHES:          0 LATE PREFETCHES: 0 DROPPED PREFETCHES: 0
DTLB PREFETCHES SAME FILL-ORIGIN LEVEL: 0 DIFFERENT FILL-ORIGIN LEVEL: 0
DTLB AVERAGE MISS LATENCY: 9.762 cycles
DTLB RQ	ACCESS:   15649614	FORWARD:          0	MERGED:    4845717	TO_CACHE:   10803897

STLB TOTAL     ACCESS:     591835  HIT:     590583  MISS:       1252  HIT %:    99.7885  MISS %:   0.211545   MPKI: 0.02504
STLB LOAD TRANSLATION ACCESS:     229455  HIT:     228271  MISS:       1184  HIT %:     99.484  MISS %:   0.516005   MPKI: 0.02368
STLB TRANSLATION FROM L1D PREFETCHER ACCESS:     362380  HIT:     362312  MISS:         68  HIT %:    99.9812  MISS %:  0.0187648   MPKI: 0.00136
STLB PREFETCH  REQUESTED:          0  ISSUED:          0  USEFUL:         60  USELESS:          3
STLB USEFUL LOAD PREFETCHES:         60 PREFETCH ISSUED TO LOWER LEVEL:          0  ACCURACY: inf
STLB TIMELY PREFETCHES:         60 LATE PREFETCHES: 0 DROPPED PREFETCHES: 27
STLB PREFETCHES SAME FILL-ORIGIN LEVEL: 0 DIFFERENT FILL-ORIGIN LEVEL: 0
STLB AVERAGE MISS LATENCY: 136.917 cycles
STLB RQ	ACCESS:     591862	FORWARD:          0	MERGED:          0	TO_CACHE:     591862

STLB Hit, L1D data hit: 0
STLB Hit, L2C data hit: 0
STLB Hit, LLC data hit: 0
STLB Hit, LLC data miss: 0
STLB STLB hints to L2: 0
L1D TOTAL     ACCESS:   15590761  HIT:   15529291  MISS:      61470  HIT %:    99.6057  MISS %:   0.394272   MPKI: 1.2294
L1D LOAD      ACCESS:    7129967  HIT:    7100744  MISS:      29223  HIT %:    99.5901  MISS %:   0.409862   MPKI: 0.58446
L1D RFO       ACCESS:    8460794  HIT:    8428547  MISS:      32247  HIT %:    99.6189  MISS %:   0.381134   MPKI: 0.64494
L1D PREFETCH  REQUESTED:          0  ISSUED:          0  USEFUL:          0  USELESS:          0
L1D USEFUL LOAD PREFETCHES:          0 PREFETCH ISSUED TO LOWER LEVEL:          0  ACCURACY: -nan
L1D TIMELY PREFETCHES:          0 LATE PREFETCHES: 0 DROPPED PREFETCHES: 0
L1D PREFETCHES SAME FILL-ORIGIN LEVEL: 0 DIFFERENT FILL-ORIGIN LEVEL: 0
L1D AVERAGE MISS LATENCY: 215.463 cycles
L1D RQ	ACCESS:   11277974	FORWARD:          0	MERGED:    3980496	TO_CACHE:    7136138
L1D WQ	ACCESS:    8638567	FORWARD:     161340	MERGED:     125091	TO_CACHE:    8513476

L1D UNIQUE REGIONS ACCESSED: 0
L1D REGIONS CONFLICTS: 0
L1D Cross Page Prefetch Requests: 0
L1D Same Page Prefetch Requests: 0
L1D ROI Sum of L1D PQ occupancy: 0
L1D PREFETCHES PUSHED FROM L2C: 0
L1I TOTAL     ACCESS:   15266932  HIT:   13192570  MISS:    2074362  HIT %:    86.4127  MISS %:    13.5873   MPKI: 41.4872
L1I LOAD      ACCESS:    9542674  HIT:    9512055  MISS:      30619  HIT %:    99.6791  MISS %:   0.320864   MPKI: 0.61238
L1I PREFETCH  ACCESS:    5724258  HIT:    3680515  MISS:    2043743  HIT %:    64.2968  MISS %:    35.7032   MPKI: 40.8749
L1I PREFETCH  REQUESTED:    6003211  ISSUED:    6001317  USEFUL:    1772184  USELESS:     271559
L1I USEFUL LOAD PREFETCHES:    1772184 PREFETCH ISSUED TO LOWER LEVEL:    2056289  ACCURACY: 86.1836
L1I TIMELY PREFETCHES:    1772184 LATE PREFETCHES: 12546 DROPPED PREFETCHES: 33
L1I PREFETCHES SAME FILL-ORIGIN LEVEL: 2056289 DIFFERENT FILL-ORIGIN LEVEL: 0
L1I AVERAGE MISS LATENCY: 321289 cycles
L1I RQ	ACCESS:   13774548	FORWARD:          0	MERGED:    4229053	TO_CACHE:    9545495
L1I PQ	ACCESS:    6001317	FORWARD:          0	MERGED:     222480	TO_CACHE:    5778837

BTB TOTAL     ACCESS:    5705846  HIT:    5254646  MISS:     451200  HIT %:    92.0923  MISS %:    7.90768   MPKI: 9.024
BTB BRANCH_DIRECT_JUMP	ACCESS:     449415  HIT:     448069  MISS:       1346
BTB BRANCH_INDIRECT	ACCESS:       2330  HIT:       2200  MISS:        130
BTB BRANCH_CONDITIONAL	ACCESS:    2664995  HIT:    2660208  MISS:       4787
BTB BRANCH_DIRECT_CALL	ACCESS:    1172178  HIT:    1168562  MISS:       3616
BTB BRANCH_INDIRECT_CALL	ACCESS:     122383  HIT:     109013  MISS:      13370
BTB BRANCH_RETURN	ACCESS:    1294545  HIT:     866594  MISS:     427951
BTB BRANCH_OTHER ACCESS:          0  HIT:          0  MISS:          0

L2C TOTAL     ACCESS:    2175123  HIT:    2104608  MISS:      70515  HIT %:    96.7581  MISS %:    3.24189   MPKI: 1.4103
L2C LOAD      ACCESS:      47296  HIT:      19406  MISS:      27890  HIT %:     41.031  MISS %:     58.969   MPKI: 0.5578
L2C DATA LOAD MPKI: 0.47138
L2C INSTRUCTION LOAD MPKI: 0.08642
L2C RFO       ACCESS:      32247  HIT:       1083  MISS:      31164  HIT %:    3.35845  MISS %:    96.6415   MPKI: 0.62328
L2C PREFETCH  ACCESS:    2056288  HIT:    2046750  MISS:       9538  HIT %:    99.5362  MISS %:   0.463846   MPKI: 0.19076
L2C DATA PREFETCH MPKI: 0
L2C INSTRUCTION PREFETCH MPKI: 0.19076
L2C WRITEBACK ACCESS:      37836  HIT:      36623  MISS:       1213  HIT %:    96.7941  MISS %:    3.20594   MPKI: 0.02426
L2C LOAD TRANSLATION ACCESS:       1350  HIT:        690  MISS:        660  HIT %:    51.1111  MISS %:    48.8889   MPKI: 0.0132
L2C TRANSLATION FROM L1D PREFETCHER ACCESS:        106  HIT:         56  MISS:         50  HIT %:    52.8302  MISS %:    47.1698   MPKI: 0.001
L2C PREFETCH  REQUESTED:          0  ISSUED:          0  USEFUL:        832  USELESS:       9004
L2C USEFUL LOAD PREFETCHES:        832 PREFETCH ISSUED TO LOWER LEVEL:       9538  ACCURACY: 8.723
L2C TIMELY PREFETCHES:        832 LATE PREFETCHES: 0 DROPPED PREFETCHES: 0
L2C PREFETCHES SAME FILL-ORIGIN LEVEL: 0 DIFFERENT FILL-ORIGIN LEVEL: 0
L2C AVERAGE MISS LATENCY: 195.554 cycles
L2C RQ	ACCESS:      80999	FORWARD:          0	MERGED:          0	TO_CACHE:      80999
L2C WQ	ACCESS:      37836	FORWARD:          0	MERGED:          0	TO_CACHE:      37836
L2C PQ	ACCESS:    2056289	FORWARD:          0	MERGED:          0	TO_CACHE:    2056289

L2C Instructions Evicting Data 11385
L2C Translations Evicting Data 586
L2C Data Evicting Data 43357
L2C Instructions Evicting Instructions 2330
L2C Translations Evicting Instructions 120
L2C Data Evicting Instructions 10849
L2C Instructions Evicting Translations 144
L2C Translations Evicting Translations 4
L2C Data Evicting Translations 527
L2C Dense regions hint from L2: 0
PSCL5 TOTAL     ACCESS:       1279  HIT:       1279  MISS:          0  HIT %:        100  MISS %:          0   MPKI: 0
PSCL5 LOAD TRANSLATION ACCESS:       1184  HIT:       1184  MISS:          0  HIT %:        100  MISS %:          0   MPKI: 0
PSCL5 TRANSLATION FROM L1D PREFETCHER ACCESS:         95  HIT:         95  MISS:          0  HIT %:        100  MISS %:          0   MPKI: 0
PSCL5 PREFETCH  REQUESTED:          0  ISSUED:          0  USEFUL:          0  USELESS:          0
PSCL5 USEFUL LOAD PREFETCHES:          0 PREFETCH ISSUED TO LOWER LEVEL:          0  ACCURACY: -nan
PSCL5 TIMELY PREFETCHES:          0 LATE PREFETCHES: 0 DROPPED PREFETCHES: 0
PSCL5 PREFETCHES SAME FILL-ORIGIN LEVEL: 0 DIFFERENT FILL-ORIGIN LEVEL: 0

PSCL4 TOTAL     ACCESS:       1024  HIT:       1014  MISS:         10  HIT %:    99.0234  MISS %:   0.976562   MPKI: 0.0002
PSCL4 LOAD TRANSLATION ACCESS:        941  HIT:        931  MISS:         10  HIT %:    98.9373  MISS %:     1.0627   MPKI: 0.0002
PSCL4 TRANSLATION FROM L1D PREFETCHER ACCESS:         83  HIT:         83  MISS:          0  HIT %:        100  MISS %:          0   MPKI: 0
PSCL4 PREFETCH  REQUESTED:          0  ISSUED:          0  USEFUL:          0  USELESS:          0
PSCL4 USEFUL LOAD PREFETCHES:          0 PREFETCH ISSUED TO LOWER LEVEL:          0  ACCURACY: -nan
PSCL4 TIMELY PREFETCHES:          0 LATE PREFETCHES: 0 DROPPED PREFETCHES: 0
PSCL4 PREFETCHES SAME FILL-ORIGIN LEVEL: 0 DIFFERENT FILL-ORIGIN LEVEL: 0

PSCL3 TOTAL     ACCESS:       1200  HIT:       1190  MISS:         10  HIT %:    99.1667  MISS %:   0.833333   MPKI: 0.0002
PSCL3 LOAD TRANSLATION ACCESS:       1117  HIT:       1107  MISS:         10  HIT %:    99.1047  MISS %:   0.895255   MPKI: 0.0002
PSCL3 TRANSLATION FROM L1D PREFETCHER ACCESS:         83  HIT:         83  MISS:          0  HIT %:        100  MISS %:          0   MPKI: 0
PSCL3 PREFETCH  REQUESTED:          0  ISSUED:          0  USEFUL:          0  USELESS:          0
PSCL3 USEFUL LOAD PREFETCHES:          0 PREFETCH ISSUED TO LOWER LEVEL:          0  ACCURACY: -nan
PSCL3 TIMELY PREFETCHES:          0 LATE PREFETCHES: 0 DROPPED PREFETCHES: 0
PSCL3 PREFETCHES SAME FILL-ORIGIN LEVEL: 0 DIFFERENT FILL-ORIGIN LEVEL: 0

PSCL2 TOTAL     ACCESS:       1277  HIT:       1126  MISS:        151  HIT %:    88.1754  MISS %:    11.8246   MPKI: 0.00302
PSCL2 LOAD TRANSLATION ACCESS:       1189  HIT:       1038  MISS:        151  HIT %:    87.3003  MISS %:    12.6997   MPKI: 0.00302
PSCL2 TRANSLATION FROM L1D PREFETCHER ACCESS:         88  HIT:         88  MISS:          0  HIT %:        100  MISS %:          0   MPKI: 0
PSCL2 PREFETCH  REQUESTED:          0  ISSUED:          0  USEFUL:          0  USELESS:          0
PSCL2 USEFUL LOAD PREFETCHES:          0 PREFETCH ISSUED TO LOWER LEVEL:          0  ACCURACY: -nan
PSCL2 TIMELY PREFETCHES:          0 LATE PREFETCHES: 0 DROPPED PREFETCHES: 0
PSCL2 PREFETCHES SAME FILL-ORIGIN LEVEL: 0 DIFFERENT FILL-ORIGIN LEVEL: 0

LLC TOTAL     ACCESS:     103437  HIT:      57473  MISS:      45964  HIT %:    55.5633  MISS %:    44.4367   MPKI: 0.91928
LLC LOAD      ACCESS:      27890  HIT:       8531  MISS:      19359  HIT %:     30.588  MISS %:     69.412   MPKI: 0.38718
LLC RFO       ACCESS:      31164  HIT:       8801  MISS:      22363  HIT %:    28.2409  MISS %:    71.7591   MPKI: 0.44726
LLC PREFETCH  ACCESS:       9538  HIT:       6114  MISS:       3424  HIT %:    64.1015  MISS %:    35.8985   MPKI: 0.06848
LLC WRITEBACK ACCESS:      34135  HIT:      33753  MISS:        382  HIT %:    98.8809  MISS %:    1.11909   MPKI: 0.00764
LLC LOAD TRANSLATION ACCESS:        660  HIT:        240  MISS:        420  HIT %:    36.3636  MISS %:    63.6364   MPKI: 0.0084
LLC TRANSLATION FROM L1D PREFETCHER ACCESS:         50  HIT:         34  MISS:         16  HIT %:         68  MISS %:         32   MPKI: 0.00032
LLC PREFETCH  REQUESTED:          0  ISSUED:          0  USEFUL:        412  USELESS:       4038
LLC USEFUL LOAD PREFETCHES:        412 PREFETCH ISSUED TO LOWER LEVEL:       3424  ACCURACY: 12.0327
LLC TIMELY PREFETCHES:        412 LATE PREFETCHES: 0 DROPPED PREFETCHES: 0
LLC PREFETCHES SAME FILL-ORIGIN LEVEL: 0 DIFFERENT FILL-ORIGIN LEVEL: 0
LLC AVERAGE MISS LATENCY: 254.739 cycles
LLC RQ	ACCESS:      59764	FORWARD:          0	MERGED:          0	TO_CACHE:      59764
LLC WQ	ACCESS:      34135	FORWARD:          0	MERGED:          0	TO_CACHE:      34135
LLC PQ	ACCESS:       9538	FORWARD:          0	MERGED:          0	TO_CACHE:       9538

LLC Dense regions hint to LLC: 0

RAW hits: 1534421
Loads Generated: 12812392
Loads sent to L1D: 11277974
Stores Generated: 8638565
Stores sent to L1D: 8638567
Major fault: 0 Minor fault: 2022
Allocated PAGES: 2022
I-Shadow cache 408 bytes
Touched + WorthPF tables 6144 bytes 
MMA filter 174 bytes 
FNL filter 272 bytes 
TOTAL PREFETCHER STORAGE SIZE: 25174 bytes
CPU 0 L1I next line prefetcher final stats
[Bingo] PHT Access: 0
[Bingo] PHT Hit PC+Addr: 0
[Bingo] PHT Hit PC+Offs: 0
[Bingo] PHT Miss: 0
[Bingo] Prefetch PC+Addr: 0
[Bingo] Prefetch PC+Offs: 0
[Bingo] Useful PC+Addr: 0
[Bingo] Useful PC+Offs: 0
[Bingo] Useless PC+Addr: 0
[Bingo] Useless PC+Offs: 0
[Bingo] L1 Prefetch per Region: -nan
[Bingo] L2 Prefetch per Region: -nan
[Bingo] L3 Prefetch per Region: -nan
[Bingo] No Prefetch per Region: -nan
[Bingo] Number of Voters Mean: -nan
[Bingo] Number of Voters SD: -nan
PHT read accesses: 10
PHT write accesses: 117
AT read accesses: 117
AT write accesses: 0
FT read accesses: 58
FT write accesses: 0
PS read accesses: 0
PS write accesses: 0
PHT tag read accesses: 2621
PHT tag write accesses: 117
AT tag read accesses: 1128240
AT tag write accesses: 117
FT tag read accesses: 1128240
FT tag write accesses: 58
PS tag read accesses: 0
PS tag write accesses: 0

DRAM Statistics
 CHANNEL 0
 RQ ROW_BUFFER_HIT:      18472  ROW_BUFFER_MISS:      27109
 DBUS_CONGESTED:         11
 WQ ROW_BUFFER_HIT:       5734  ROW_BUFFER_MISS:      19791  FULL:          0

 AVG_CONGESTED_CYCLE: 3
 All warmup complete: 2
Channel 0 Bank busy for read cycles: 0
Channel 0 Bank busy for write cycles: 0
Channel 0
Rank 0
0banks busy for read cycles: 65058600
0banks busy for write cycles: 1784
1banks busy for read cycles: 647889
1banks busy for write cycles: 259571
2banks busy for read cycles: 322807
2banks busy for write cycles: 171717
3banks busy for read cycles: 133064
3banks busy for write cycles: 89963
4banks busy for read cycles: 78363
4banks busy for write cycles: 58437
5banks busy for read cycles: 69900
5banks busy for write cycles: 43301
6banks busy for read cycles: 72792
6banks busy for write cycles: 44337
7banks busy for read cycles: 86285
7banks busy for write cycles: 74328
8banks busy for read cycles: 213426
8banks busy for write cycles: 344659

CPU 0 Branch Prediction Accuracy: 99.7719% MPKI: 0.38824 Average ROB Occupancy at Mispredict: 47.8178
Branch types
NOT_BRANCH: 41488827 82.9776%
BRANCH_DIRECT_JUMP: 449415 0.89883%
BRANCH_INDIRECT: 2330 0.00466%
BRANCH_CONDITIONAL: 5470003 10.94%
BRANCH_DIRECT_CALL: 1172178 2.34436%
BRANCH_INDIRECT_CALL: 122383 0.244766%
BRANCH_RETURN: 1294545 2.58909%
BRANCH_OTHER: 0 0%

DRAM PAGES: 1048576
Allocated PAGES: 2022
