
*** ChampSim Multicore Out-of-Order Simulator ***

Warmup Instructions: 50000000
Simulation Instructions: 50000000
Number of CPUs: 1
LLC sets: 2048
LLC ways: 16
Off-chip DRAM Size: 4096 MB Channels: 1 Width: 64-bit Data Rate: 6400 MT/s
CPU 0 runs ../IPC-traces//server_037.champsimtrace.xz
.xz
NUM_OF_IPS_IN_CRITICAL_IP_TRAINING: 64
NUM_OF_CRITICAL_IP_TRAINING_TABLE_WAYS: 2
NUM_OF_CRITICAL_IP_TRAINING_TABLE_SETS: 32
WOBBLY_CRITICAL_IP_CACHE_SETS: 32
WOBBLY_CRITICAL_IP_CACHE_WAYS: 4
BTB has LRU replacement policy
ITLB has LRU replacement policy
DTLB has LRU replacement policy
STLB has LRU replacement policy
CPU 0 L1I next line prefetcher
L1I has LRU replacement policy
IP Table Entries: 64
L1D has LRU replacement policy
Initialize SRRIP state for L2C
Initialize DRRIP state for LLC
Heartbeat CPU 0 instructions: 10000000 cycles: 2749593 heartbeat IPC: 3.6369 cumulative IPC: 3.6369 (Simulation time: 0 hr 3 min 34 sec) 
Heartbeat CPU 0 instructions: 20000001 cycles: 5495689 heartbeat IPC: 3.64153 cumulative IPC: 3.63922 (Simulation time: 0 hr 6 min 37 sec) 
Heartbeat CPU 0 instructions: 30000000 cycles: 8295827 heartbeat IPC: 3.57125 cumulative IPC: 3.61628 (Simulation time: 0 hr 9 min 14 sec) 
Heartbeat CPU 0 instructions: 40000003 cycles: 11041594 heartbeat IPC: 3.64197 cumulative IPC: 3.62267 (Simulation time: 0 hr 11 min 40 sec) 
Heartbeat CPU 0 instructions: 50000002 cycles: 13787085 heartbeat IPC: 3.64234 cumulative IPC: 3.62658 (Simulation time: 0 hr 14 min 6 sec) 

Warmup complete CPU 0 instructions: 50000002 cycles: 13787085 (Simulation time: 0 hr 14 min 6 sec) 

% increase in all ip prefetch 290.195
% increase in all ip prefetch 1.17685
Heartbeat CPU 0 instructions: 60000000 cycles: 25295343 heartbeat IPC: 0.868941 cumulative IPC: 0.868941 (Simulation time: 0 hr 16 min 21 sec) 
Heartbeat CPU 0 instructions: 70000000 cycles: 36905273 heartbeat IPC: 0.861332 cumulative IPC: 0.86512 (Simulation time: 0 hr 18 min 33 sec) 
Heartbeat CPU 0 instructions: 80000001 cycles: 48359516 heartbeat IPC: 0.873039 cumulative IPC: 0.867743 (Simulation time: 0 hr 20 min 47 sec) 
Heartbeat CPU 0 instructions: 90000002 cycles: 59837977 heartbeat IPC: 0.871197 cumulative IPC: 0.868604 (Simulation time: 0 hr 22 min 59 sec) 
*** Reached end of trace for Core: 0 Repeating trace: ../IPC-traces//server_037.champsimtrace.xz
Heartbeat CPU 0 instructions: 100000003 cycles: 71313542 heartbeat IPC: 0.871417 cumulative IPC: 0.869165 (Simulation time: 0 hr 24 min 50 sec) 
Finished CPU 0 instructions: 50000001 cycles: 57526457 cumulative IPC: 0.869165 (Simulation time: 0 hr 24 min 50 sec) 

ChampSim completed all CPUs

Region of Interest Statistics

CPU 0 cumulative IPC: 0.869165 instructions: 50000001 cycles: 57526457

CPU 0 Average Load ROB stall cycles: 4.65901e+06
CPU 0 Fraction of times ROB stalled by Loads: 10.923
CPU 0 Percentage of Load stall cycles in Total stall cycles: 7.58131e+07
 Total stall cycles: 32588789
 Total load stall cycles: 24706571020577
CPU 0 NUM of IPS identified critical: 0
CPU 0 Num of Load IPs stalling ROB: 2054
Threshold modification factor: -1
Max PIST entries: 64
Min PIST entries: 0
Avg PIST entries: 32
Trouble in retire width: 0.718097
MaC = Marked as critical.
lt_50_percent_before_Mac: 0
gt_90_percent_before_Mac: 0
gt_75_percent_before_Mac: 0
gt_50_percent_before_Mac: 0
stall_proportion_bin_same_before_after: 0
stall_proportion_bin_lower_before_after: 0
stall_proportion_bin_upper_before_after: 0
average_stall_proportion_before: -nan
average_stall_proportion_after: -nan
Critical IP stalls, total frequency: 0
Non-critical IP stalls, total frequency: 554605
Critical_IP_ROB_Stalls_Bucket_0: 0
Non-critical_IP_ROB_Stalls_Bucket_0: 346920
Critical_IP_ROB_Stalls_Bucket_1: 0
Non-critical_IP_ROB_Stalls_Bucket_1: 165735
Critical_IP_ROB_Stalls_Bucket_2: 0
Non-critical_IP_ROB_Stalls_Bucket_2: 47596
Critical_IP_ROB_Stalls_Bucket_3: 0
Non-critical_IP_ROB_Stalls_Bucket_3: 14386
Critical_IP_ROB_Stalls_Bucket_4: 0
Non-critical_IP_ROB_Stalls_Bucket_4: 2772
Critical_IP_ROB_Stalls_Bucket_5: 0
Non-critical_IP_ROB_Stalls_Bucket_5: 1340
Critical_IP_ROB_Stalls_Bucket_6: 0
Non-critical_IP_ROB_Stalls_Bucket_6: 492
0 => IPs accounting for >50 percent of stalls, 1 => 55, 2 => 60, 3 => 65 and so on till 90.
percent50: 50.0556 num IPs:82
percent55: 55.2155 num IPs:95
percent60: 60.0768 num IPs:108
percent65: 65.1042 num IPs:123
percent70: 70.2477 num IPs:141
percent75: 75.1641 num IPs:164
percent80: 80.0893 num IPs:197
percent85: 85.0398 num IPs:250
percent90: 90.0318 num IPs:342
Critical_ROB_Stalls_Percent_0_Bucket_0: 177343
Non-critical_ROB_Stalls_Percent_0_Bucket_0: 169577
Critical_ROB_Stalls_Percent_0_Bucket_1: 71903
Non-critical_ROB_Stalls_Percent_0_Bucket_1: 93832
Critical_ROB_Stalls_Percent_0_Bucket_2: 21840
Non-critical_ROB_Stalls_Percent_0_Bucket_2: 25756
Critical_ROB_Stalls_Percent_0_Bucket_3: 4752
Non-critical_ROB_Stalls_Percent_0_Bucket_3: 9634
Critical_ROB_Stalls_Percent_0_Bucket_4: 1537
Non-critical_ROB_Stalls_Percent_0_Bucket_4: 1235
Critical_ROB_Stalls_Percent_0_Bucket_5: 231
Non-critical_ROB_Stalls_Percent_0_Bucket_5: 1109
Critical_ROB_Stalls_Percent_0_Bucket_6: 5
Non-critical_ROB_Stalls_Percent_0_Bucket_6: 487
Critical_ROB_Stalls_Percent_1_Bucket_0: 195186
Non-critical_ROB_Stalls_Percent_1_Bucket_0: 151734
Critical_ROB_Stalls_Percent_1_Bucket_1: 78689
Non-critical_ROB_Stalls_Percent_1_Bucket_1: 87046
Critical_ROB_Stalls_Percent_1_Bucket_2: 24398
Non-critical_ROB_Stalls_Percent_1_Bucket_2: 23198
Critical_ROB_Stalls_Percent_1_Bucket_3: 6110
Non-critical_ROB_Stalls_Percent_1_Bucket_3: 8276
Critical_ROB_Stalls_Percent_1_Bucket_4: 1604
Non-critical_ROB_Stalls_Percent_1_Bucket_4: 1168
Critical_ROB_Stalls_Percent_1_Bucket_5: 236
Non-critical_ROB_Stalls_Percent_1_Bucket_5: 1104
Critical_ROB_Stalls_Percent_1_Bucket_6: 5
Non-critical_ROB_Stalls_Percent_1_Bucket_6: 487
Critical_ROB_Stalls_Percent_2_Bucket_0: 213842
Non-critical_ROB_Stalls_Percent_2_Bucket_0: 133078
Critical_ROB_Stalls_Percent_2_Bucket_1: 84146
Non-critical_ROB_Stalls_Percent_2_Bucket_1: 81589
Critical_ROB_Stalls_Percent_2_Bucket_2: 26326
Non-critical_ROB_Stalls_Percent_2_Bucket_2: 21270
Critical_ROB_Stalls_Percent_2_Bucket_3: 7020
Non-critical_ROB_Stalls_Percent_2_Bucket_3: 7366
Critical_ROB_Stalls_Percent_2_Bucket_4: 1613
Non-critical_ROB_Stalls_Percent_2_Bucket_4: 1159
Critical_ROB_Stalls_Percent_2_Bucket_5: 237
Non-critical_ROB_Stalls_Percent_2_Bucket_5: 1103
Critical_ROB_Stalls_Percent_2_Bucket_6: 5
Non-critical_ROB_Stalls_Percent_2_Bucket_6: 487
Critical_ROB_Stalls_Percent_3_Bucket_0: 235441
Non-critical_ROB_Stalls_Percent_3_Bucket_0: 111479
Critical_ROB_Stalls_Percent_3_Bucket_1: 89886
Non-critical_ROB_Stalls_Percent_3_Bucket_1: 75849
Critical_ROB_Stalls_Percent_3_Bucket_2: 26864
Non-critical_ROB_Stalls_Percent_3_Bucket_2: 20732
Critical_ROB_Stalls_Percent_3_Bucket_3: 7023
Non-critical_ROB_Stalls_Percent_3_Bucket_3: 7363
Critical_ROB_Stalls_Percent_3_Bucket_4: 1614
Non-critical_ROB_Stalls_Percent_3_Bucket_4: 1158
Critical_ROB_Stalls_Percent_3_Bucket_5: 238
Non-critical_ROB_Stalls_Percent_3_Bucket_5: 1102
Critical_ROB_Stalls_Percent_3_Bucket_6: 5
Non-critical_ROB_Stalls_Percent_3_Bucket_6: 487
Critical_ROB_Stalls_Percent_4_Bucket_0: 251906
Non-critical_ROB_Stalls_Percent_4_Bucket_0: 95014
Critical_ROB_Stalls_Percent_4_Bucket_1: 101390
Non-critical_ROB_Stalls_Percent_4_Bucket_1: 64345
Critical_ROB_Stalls_Percent_4_Bucket_2: 27411
Non-critical_ROB_Stalls_Percent_4_Bucket_2: 20185
Critical_ROB_Stalls_Percent_4_Bucket_3: 7032
Non-critical_ROB_Stalls_Percent_4_Bucket_3: 7354
Critical_ROB_Stalls_Percent_4_Bucket_4: 1615
Non-critical_ROB_Stalls_Percent_4_Bucket_4: 1157
Critical_ROB_Stalls_Percent_4_Bucket_5: 238
Non-critical_ROB_Stalls_Percent_4_Bucket_5: 1102
Critical_ROB_Stalls_Percent_4_Bucket_6: 5
Non-critical_ROB_Stalls_Percent_4_Bucket_6: 487
Critical_ROB_Stalls_Percent_5_Bucket_0: 266418
Non-critical_ROB_Stalls_Percent_5_Bucket_0: 80502
Critical_ROB_Stalls_Percent_5_Bucket_1: 109794
Non-critical_ROB_Stalls_Percent_5_Bucket_1: 55941
Critical_ROB_Stalls_Percent_5_Bucket_2: 30810
Non-critical_ROB_Stalls_Percent_5_Bucket_2: 16786
Critical_ROB_Stalls_Percent_5_Bucket_3: 7930
Non-critical_ROB_Stalls_Percent_5_Bucket_3: 6456
Critical_ROB_Stalls_Percent_5_Bucket_4: 1661
Non-critical_ROB_Stalls_Percent_5_Bucket_4: 1111
Critical_ROB_Stalls_Percent_5_Bucket_5: 245
Non-critical_ROB_Stalls_Percent_5_Bucket_5: 1095
Critical_ROB_Stalls_Percent_5_Bucket_6: 6
Non-critical_ROB_Stalls_Percent_5_Bucket_6: 486
Critical_ROB_Stalls_Percent_6_Bucket_0: 284029
Non-critical_ROB_Stalls_Percent_6_Bucket_0: 62891
Critical_ROB_Stalls_Percent_6_Bucket_1: 114709
Non-critical_ROB_Stalls_Percent_6_Bucket_1: 51026
Critical_ROB_Stalls_Percent_6_Bucket_2: 33277
Non-critical_ROB_Stalls_Percent_6_Bucket_2: 14319
Critical_ROB_Stalls_Percent_6_Bucket_3: 9378
Non-critical_ROB_Stalls_Percent_6_Bucket_3: 5008
Critical_ROB_Stalls_Percent_6_Bucket_4: 1854
Non-critical_ROB_Stalls_Percent_6_Bucket_4: 918
Critical_ROB_Stalls_Percent_6_Bucket_5: 851
Non-critical_ROB_Stalls_Percent_6_Bucket_5: 489
Critical_ROB_Stalls_Percent_6_Bucket_6: 81
Non-critical_ROB_Stalls_Percent_6_Bucket_6: 411
Critical_ROB_Stalls_Percent_7_Bucket_0: 296165
Non-critical_ROB_Stalls_Percent_7_Bucket_0: 50755
Critical_ROB_Stalls_Percent_7_Bucket_1: 126126
Non-critical_ROB_Stalls_Percent_7_Bucket_1: 39609
Critical_ROB_Stalls_Percent_7_Bucket_2: 35837
Non-critical_ROB_Stalls_Percent_7_Bucket_2: 11759
Critical_ROB_Stalls_Percent_7_Bucket_3: 10672
Non-critical_ROB_Stalls_Percent_7_Bucket_3: 3714
Critical_ROB_Stalls_Percent_7_Bucket_4: 1890
Non-critical_ROB_Stalls_Percent_7_Bucket_4: 882
Critical_ROB_Stalls_Percent_7_Bucket_5: 863
Non-critical_ROB_Stalls_Percent_7_Bucket_5: 477
Critical_ROB_Stalls_Percent_7_Bucket_6: 82
Non-critical_ROB_Stalls_Percent_7_Bucket_6: 410
Critical_ROB_Stalls_Percent_8_Bucket_0: 311457
Non-critical_ROB_Stalls_Percent_8_Bucket_0: 35463
Critical_ROB_Stalls_Percent_8_Bucket_1: 135449
Non-critical_ROB_Stalls_Percent_8_Bucket_1: 30286
Critical_ROB_Stalls_Percent_8_Bucket_2: 37890
Non-critical_ROB_Stalls_Percent_8_Bucket_2: 9706
Critical_ROB_Stalls_Percent_8_Bucket_3: 11164
Non-critical_ROB_Stalls_Percent_8_Bucket_3: 3222
Critical_ROB_Stalls_Percent_8_Bucket_4: 2022
Non-critical_ROB_Stalls_Percent_8_Bucket_4: 750
Critical_ROB_Stalls_Percent_8_Bucket_5: 989
Non-critical_ROB_Stalls_Percent_8_Bucket_5: 351
Critical_ROB_Stalls_Percent_8_Bucket_6: 350
Non-critical_ROB_Stalls_Percent_8_Bucket_6: 142
Average ROB occupancy Load Stall Begin: 47.0073
Average ROB occupancy Load Stall End: 52.8833
Min ROB occupancy Load Stall Begin: 1
Max ROB occupancy Load Stall Begin: 351
Min ROB occupancy Load Stall End: 1
Max ROB occupancy Load Stall End: 352
Average ROB occupancy Critical Load Stall Begin: -nan
Average ROB occupancy Critical Load Stall End: -nan
Min ROB occupancy Critical Load Stall Begin: 400
Max ROB occupancy Critical Load Stall Begin: 0
Min ROB occupancy Critical Load Stall End: 400
Max ROB occupancy Critical Load Stall End: 0
 ROB Load Stall Begin Bucket Count 0: 381312
 ROB Load Stall End Bucket Count 0: 346920
 ROB Critical Load Stall Begin Bucket Count 0: 0
 ROB Critical Load Stall End Bucket Count 0: 0
 ROB Load Stall Begin Bucket Count 1: 143192
 ROB Load Stall End Bucket Count 1: 165735
 ROB Critical Load Stall Begin Bucket Count 1: 0
 ROB Critical Load Stall End Bucket Count 1: 0
 ROB Load Stall Begin Bucket Count 2: 40754
 ROB Load Stall End Bucket Count 2: 47596
 ROB Critical Load Stall Begin Bucket Count 2: 0
 ROB Critical Load Stall End Bucket Count 2: 0
 ROB Load Stall Begin Bucket Count 3: 11165
 ROB Load Stall End Bucket Count 3: 14386
 ROB Critical Load Stall Begin Bucket Count 3: 0
 ROB Critical Load Stall End Bucket Count 3: 0
 ROB Load Stall Begin Bucket Count 4: 1159
 ROB Load Stall End Bucket Count 4: 2772
 ROB Critical Load Stall Begin Bucket Count 4: 0
 ROB Critical Load Stall End Bucket Count 4: 0
 ROB Load Stall Begin Bucket Count 5: 1242
 ROB Load Stall End Bucket Count 5: 1340
 ROB Critical Load Stall Begin Bucket Count 5: 0
 ROB Critical Load Stall End Bucket Count 5: 0
 ROB Load Stall Begin Bucket Count 6: 417
 ROB Load Stall End Bucket Count 6: 492
 ROB Critical Load Stall Begin Bucket Count 6: 0
 ROB Critical Load Stall End Bucket Count 6: 0
PIST Tag Read Accesses: 315750
PIST Read Accesses: 157875
PIST Tag Write Accesses: 315750
PIST Write Accesses: 157875
Criticality detector called times: 295011
Max global_stall_cycles_count: 274235
Threshold Modified: 1 times, factor: -1
ITLB TOTAL     ACCESS:   10638196  HIT:    9903131  MISS:     735065  HIT %:    93.0903  MISS %:    6.90968   MPKI: 14.7013
ITLB LOAD TRANSLATION ACCESS:    8010181  HIT:    7982860  MISS:      27321  HIT %:    99.6589  MISS %:   0.341078   MPKI: 0.54642
ITLB TRANSLATION FROM L1D PREFETCHER ACCESS:    2628015  HIT:    1920271  MISS:     707744  HIT %:    73.0693  MISS %:    26.9307   MPKI: 14.1549
ITLB PREFETCH  REQUESTED:          0  ISSUED:          0  USEFUL:     655636  USELESS:      52113
ITLB USEFUL LOAD PREFETCHES:     655636 PREFETCH ISSUED TO LOWER LEVEL:          0  ACCURACY: inf
ITLB TIMELY PREFETCHES:     655636 LATE PREFETCHES: 119 DROPPED PREFETCHES: 70
ITLB PREFETCHES SAME FILL-ORIGIN LEVEL: 0 DIFFERENT FILL-ORIGIN LEVEL: 0
ITLB AVERAGE MISS LATENCY: 6602.09 cycles
ITLB RQ	ACCESS:   16388595	FORWARD:          0	MERGED:    5683528	TO_CACHE:   10705067

DTLB TOTAL     ACCESS:    9396782  HIT:    8871705  MISS:     525077  HIT %:    94.4122  MISS %:    5.58784   MPKI: 10.5015
DTLB LOAD TRANSLATION ACCESS:    9396782  HIT:    8871705  MISS:     525077  HIT %:    94.4122  MISS %:    5.58784   MPKI: 10.5015
DTLB PREFETCH  REQUESTED:          0  ISSUED:          0  USEFUL:          0  USELESS:          0
DTLB USEFUL LOAD PREFETCHES:          0 PREFETCH ISSUED TO LOWER LEVEL:          0  ACCURACY: -nan
DTLB TIMELY PREFETCHES:          0 LATE PREFETCHES: 0 DROPPED PREFETCHES: 0
DTLB PREFETCHES SAME FILL-ORIGIN LEVEL: 0 DIFFERENT FILL-ORIGIN LEVEL: 0
DTLB AVERAGE MISS LATENCY: 9.92802 cycles
DTLB RQ	ACCESS:   13427756	FORWARD:          0	MERGED:    3988282	TO_CACHE:    9439474

STLB TOTAL     ACCESS:    1314992  HIT:    1308892  MISS:       6100  HIT %:    99.5361  MISS %:   0.463881   MPKI: 0.122
STLB LOAD TRANSLATION ACCESS:     552280  HIT:     546277  MISS:       6003  HIT %:    98.9131  MISS %:    1.08695   MPKI: 0.12006
STLB TRANSLATION FROM L1D PREFETCHER ACCESS:     762712  HIT:     762615  MISS:         97  HIT %:    99.9873  MISS %:  0.0127178   MPKI: 0.00194
STLB PREFETCH  REQUESTED:          0  ISSUED:          0  USEFUL:         69  USELESS:         23
STLB USEFUL LOAD PREFETCHES:         69 PREFETCH ISSUED TO LOWER LEVEL:          0  ACCURACY: inf
STLB TIMELY PREFETCHES:         69 LATE PREFETCHES: 0 DROPPED PREFETCHES: 71
STLB PREFETCHES SAME FILL-ORIGIN LEVEL: 0 DIFFERENT FILL-ORIGIN LEVEL: 0
STLB AVERAGE MISS LATENCY: 80.6498 cycles
STLB RQ	ACCESS:    1341457	FORWARD:          0	MERGED:      26394	TO_CACHE:    1315063

STLB Hit, L1D data hit: 0
STLB Hit, L2C data hit: 0
STLB Hit, LLC data hit: 0
STLB Hit, LLC data miss: 0
STLB STLB hints to L2: 0
L1D TOTAL     ACCESS:   13403856  HIT:   12939722  MISS:     464134  HIT %:    96.5373  MISS %:    3.46269   MPKI: 9.28268
L1D LOAD      ACCESS:    7087254  HIT:    6711128  MISS:     376126  HIT %:    94.6929  MISS %:    5.30708   MPKI: 7.52252
L1D RFO       ACCESS:    6238357  HIT:    6176551  MISS:      61806  HIT %:    99.0093  MISS %:   0.990742   MPKI: 1.23612
L1D PREFETCH  ACCESS:      78245  HIT:      52043  MISS:      26202  HIT %:    66.5129  MISS %:    33.4871   MPKI: 0.52404
L1D PREFETCH  REQUESTED:     162584  ISSUED:     162584  USEFUL:       7444  USELESS:      18768
L1D USEFUL LOAD PREFETCHES:       7444 PREFETCH ISSUED TO LOWER LEVEL:      26865  ACCURACY: 27.7089
L1D TIMELY PREFETCHES:       7444 LATE PREFETCHES: 663 DROPPED PREFETCHES: 0
L1D PREFETCHES SAME FILL-ORIGIN LEVEL: 26865 DIFFERENT FILL-ORIGIN LEVEL: 0
L1D AVERAGE MISS LATENCY: 65296.7 cycles
L1D RQ	ACCESS:   10940102	FORWARD:          0	MERGED:    3685364	TO_CACHE:    7102960
L1D WQ	ACCESS:    6420102	FORWARD:     151874	MERGED:      95306	TO_CACHE:    6324796
L1D PQ	ACCESS:      81340	FORWARD:          0	MERGED:          0	TO_CACHE:      81244

L1D UNIQUE REGIONS ACCESSED: 0
L1D REGIONS CONFLICTS: 0
L1D Cross Page Prefetch Requests: 0
L1D Same Page Prefetch Requests: 156765
L1D ROI Sum of L1D PQ occupancy: 1046656
L1D PREFETCHES PUSHED FROM L2C: 0
L1I TOTAL     ACCESS:   16305432  HIT:   11460321  MISS:    4845111  HIT %:    70.2853  MISS %:    29.7147   MPKI: 96.9022
L1I LOAD      ACCESS:    9511979  HIT:    9500540  MISS:      11439  HIT %:    99.8797  MISS %:   0.120259   MPKI: 0.22878
L1I PREFETCH  ACCESS:    6793453  HIT:    1959781  MISS:    4833672  HIT %:    28.8481  MISS %:    71.1519   MPKI: 96.6734
L1I PREFETCH  REQUESTED:    7061441  ISSUED:    7042511  USEFUL:    4116422  USELESS:     717309
L1I USEFUL LOAD PREFETCHES:    4116422 PREFETCH ISSUED TO LOWER LEVEL:    4834307  ACCURACY: 85.1502
L1I TIMELY PREFETCHES:    4116422 LATE PREFETCHES: 635 DROPPED PREFETCHES: 124
L1I PREFETCHES SAME FILL-ORIGIN LEVEL: 4834307 DIFFERENT FILL-ORIGIN LEVEL: 0
L1I AVERAGE MISS LATENCY: 5266.54 cycles
L1I RQ	ACCESS:   14208986	FORWARD:          0	MERGED:    4692759	TO_CACHE:    9516227
L1I PQ	ACCESS:    7042511	FORWARD:          0	MERGED:     170143	TO_CACHE:    6872368

BTB TOTAL     ACCESS:    5412892  HIT:    4884021  MISS:     528871  HIT %:    90.2294  MISS %:    9.77058   MPKI: 10.5774
BTB BRANCH_DIRECT_JUMP	ACCESS:     541940  HIT:     528661  MISS:      13279
BTB BRANCH_INDIRECT	ACCESS:      59716  HIT:      59608  MISS:        108
BTB BRANCH_CONDITIONAL	ACCESS:    2331473  HIT:    2288277  MISS:      43196
BTB BRANCH_DIRECT_CALL	ACCESS:    1005459  HIT:     966792  MISS:      38667
BTB BRANCH_INDIRECT_CALL	ACCESS:     234433  HIT:     188681  MISS:      45752
BTB BRANCH_RETURN	ACCESS:    1239871  HIT:     852002  MISS:     387869
BTB BRANCH_OTHER ACCESS:          0  HIT:          0  MISS:          0

L2C TOTAL     ACCESS:    5551113  HIT:    5382599  MISS:     168514  HIT %:    96.9643  MISS %:    3.03568   MPKI: 3.37028
L2C LOAD      ACCESS:     386192  HIT:     270572  MISS:     115620  HIT %:    70.0615  MISS %:    29.9385   MPKI: 2.3124
L2C DATA LOAD MPKI: 2.28668
L2C INSTRUCTION LOAD MPKI: 0.02572
L2C RFO       ACCESS:      61806  HIT:      33321  MISS:      28485  HIT %:    53.9122  MISS %:    46.0878   MPKI: 0.5697
L2C PREFETCH  ACCESS:    4861172  HIT:    4846050  MISS:      15122  HIT %:    99.6889  MISS %:   0.311077   MPKI: 0.30244
L2C DATA PREFETCH MPKI: 0.20542
L2C INSTRUCTION PREFETCH MPKI: 0.09702
L2C WRITEBACK ACCESS:     233306  HIT:     229030  MISS:       4276  HIT %:    98.1672  MISS %:    1.83279   MPKI: 0.08552
L2C LOAD TRANSLATION ACCESS:       8230  HIT:       3316  MISS:       4914  HIT %:    40.2916  MISS %:    59.7084   MPKI: 0.09828
L2C TRANSLATION FROM L1D PREFETCHER ACCESS:        407  HIT:        310  MISS:         97  HIT %:    76.1671  MISS %:    23.8329   MPKI: 0.00194
L2C PREFETCH  REQUESTED:          0  ISSUED:          0  USEFUL:        674  USELESS:      14535
L2C USEFUL LOAD PREFETCHES:        674 PREFETCH ISSUED TO LOWER LEVEL:      15122  ACCURACY: 4.45708
L2C TIMELY PREFETCHES:        674 LATE PREFETCHES: 0 DROPPED PREFETCHES: 0
L2C PREFETCHES SAME FILL-ORIGIN LEVEL: 0 DIFFERENT FILL-ORIGIN LEVEL: 0
L2C AVERAGE MISS LATENCY: 52.1449 cycles
L2C RQ	ACCESS:     456711	FORWARD:          0	MERGED:          0	TO_CACHE:     456636
L2C WQ	ACCESS:     233307	FORWARD:         75	MERGED:          0	TO_CACHE:     233307
L2C PQ	ACCESS:    4861172	FORWARD:          0	MERGED:          0	TO_CACHE:    4861172

L2C Instructions Evicting Data 5483
L2C Translations Evicting Data 4570
L2C Data Evicting Data 143311
L2C Instructions Evicting Instructions 461
L2C Translations Evicting Instructions 236
L2C Data Evicting Instructions 5243
L2C Instructions Evicting Translations 193
L2C Translations Evicting Translations 205
L2C Data Evicting Translations 4536
L2C Dense regions hint from L2: 0
PSCL5 TOTAL     ACCESS:       6171  HIT:       6171  MISS:          0  HIT %:        100  MISS %:          0   MPKI: 0
PSCL5 LOAD TRANSLATION ACCESS:       6003  HIT:       6003  MISS:          0  HIT %:        100  MISS %:          0   MPKI: 0
PSCL5 TRANSLATION FROM L1D PREFETCHER ACCESS:        168  HIT:        168  MISS:          0  HIT %:        100  MISS %:          0   MPKI: 0
PSCL5 PREFETCH  REQUESTED:          0  ISSUED:          0  USEFUL:          0  USELESS:          0
PSCL5 USEFUL LOAD PREFETCHES:          0 PREFETCH ISSUED TO LOWER LEVEL:          0  ACCURACY: -nan
PSCL5 TIMELY PREFETCHES:          0 LATE PREFETCHES: 0 DROPPED PREFETCHES: 0
PSCL5 PREFETCHES SAME FILL-ORIGIN LEVEL: 0 DIFFERENT FILL-ORIGIN LEVEL: 0

PSCL4 TOTAL     ACCESS:       6078  HIT:       6073  MISS:          5  HIT %:    99.9177  MISS %:  0.0822639   MPKI: 0.0001
PSCL4 LOAD TRANSLATION ACCESS:       5968  HIT:       5963  MISS:          5  HIT %:    99.9162  MISS %:  0.0837802   MPKI: 0.0001
PSCL4 TRANSLATION FROM L1D PREFETCHER ACCESS:        110  HIT:        110  MISS:          0  HIT %:        100  MISS %:          0   MPKI: 0
PSCL4 PREFETCH  REQUESTED:          0  ISSUED:          0  USEFUL:          0  USELESS:          0
PSCL4 USEFUL LOAD PREFETCHES:          0 PREFETCH ISSUED TO LOWER LEVEL:          0  ACCURACY: -nan
PSCL4 TIMELY PREFETCHES:          0 LATE PREFETCHES: 0 DROPPED PREFETCHES: 0
PSCL4 PREFETCHES SAME FILL-ORIGIN LEVEL: 0 DIFFERENT FILL-ORIGIN LEVEL: 0

PSCL3 TOTAL     ACCESS:       6098  HIT:       6069  MISS:         29  HIT %:    99.5244  MISS %:   0.475566   MPKI: 0.00058
PSCL3 LOAD TRANSLATION ACCESS:       5992  HIT:       5963  MISS:         29  HIT %:     99.516  MISS %:   0.483979   MPKI: 0.00058
PSCL3 TRANSLATION FROM L1D PREFETCHER ACCESS:        106  HIT:        106  MISS:          0  HIT %:        100  MISS %:          0   MPKI: 0
PSCL3 PREFETCH  REQUESTED:          0  ISSUED:          0  USEFUL:          0  USELESS:          0
PSCL3 USEFUL LOAD PREFETCHES:          0 PREFETCH ISSUED TO LOWER LEVEL:          0  ACCURACY: -nan
PSCL3 TIMELY PREFETCHES:          0 LATE PREFETCHES: 0 DROPPED PREFETCHES: 0
PSCL3 PREFETCHES SAME FILL-ORIGIN LEVEL: 0 DIFFERENT FILL-ORIGIN LEVEL: 0

PSCL2 TOTAL     ACCESS:       6108  HIT:       3825  MISS:       2283  HIT %:    62.6228  MISS %:    37.3772   MPKI: 0.04566
PSCL2 LOAD TRANSLATION ACCESS:       6062  HIT:       3779  MISS:       2283  HIT %:    62.3392  MISS %:    37.6608   MPKI: 0.04566
PSCL2 TRANSLATION FROM L1D PREFETCHER ACCESS:         46  HIT:         46  MISS:          0  HIT %:        100  MISS %:          0   MPKI: 0
PSCL2 PREFETCH  REQUESTED:          0  ISSUED:          0  USEFUL:          0  USELESS:          0
PSCL2 USEFUL LOAD PREFETCHES:          0 PREFETCH ISSUED TO LOWER LEVEL:          0  ACCURACY: -nan
PSCL2 TIMELY PREFETCHES:          0 LATE PREFETCHES: 0 DROPPED PREFETCHES: 0
PSCL2 PREFETCHES SAME FILL-ORIGIN LEVEL: 0 DIFFERENT FILL-ORIGIN LEVEL: 0

LLC TOTAL     ACCESS:     245025  HIT:     220348  MISS:      24677  HIT %:    89.9288  MISS %:    10.0712   MPKI: 0.49354
LLC LOAD      ACCESS:     115620  HIT:     100367  MISS:      15253  HIT %:    86.8076  MISS %:    13.1924   MPKI: 0.30506
LLC RFO       ACCESS:      28485  HIT:      22949  MISS:       5536  HIT %:    80.5652  MISS %:    19.4348   MPKI: 0.11072
LLC PREFETCH  ACCESS:      15122  HIT:      11746  MISS:       3376  HIT %:    77.6749  MISS %:    22.3251   MPKI: 0.06752
LLC WRITEBACK ACCESS:      80787  HIT:      80521  MISS:        266  HIT %:    99.6707  MISS %:   0.329261   MPKI: 0.00532
LLC LOAD TRANSLATION ACCESS:       4914  HIT:       4674  MISS:        240  HIT %:     95.116  MISS %:      4.884   MPKI: 0.0048
LLC TRANSLATION FROM L1D PREFETCHER ACCESS:         97  HIT:         91  MISS:          6  HIT %:    93.8144  MISS %:    6.18557   MPKI: 0.00012
LLC PREFETCH  REQUESTED:          0  ISSUED:          0  USEFUL:         90  USELESS:       3423
LLC USEFUL LOAD PREFETCHES:         90 PREFETCH ISSUED TO LOWER LEVEL:       3376  ACCURACY: 2.66588
LLC TIMELY PREFETCHES:         90 LATE PREFETCHES: 0 DROPPED PREFETCHES: 0
LLC PREFETCHES SAME FILL-ORIGIN LEVEL: 0 DIFFERENT FILL-ORIGIN LEVEL: 0
LLC AVERAGE MISS LATENCY: 156.042 cycles
LLC RQ	ACCESS:     149117	FORWARD:          0	MERGED:          0	TO_CACHE:     149117
LLC WQ	ACCESS:      80787	FORWARD:          0	MERGED:          0	TO_CACHE:      80787
LLC PQ	ACCESS:      15122	FORWARD:          0	MERGED:          0	TO_CACHE:      15122

LLC Dense regions hint to LLC: 0

RAW hits: 1600268
Loads Generated: 12540372
Loads sent to L1D: 10940102
Stores Generated: 6420092
Stores sent to L1D: 6420102
Major fault: 0 Minor fault: 5878
Allocated PAGES: 5878
I-Shadow cache 408 bytes
Touched + WorthPF tables 6144 bytes 
MMA filter 174 bytes 
FNL filter 272 bytes 
TOTAL PREFETCHER STORAGE SIZE: 25174 bytes
CPU 0 L1I next line prefetcher final stats

stream: 
stream:times selected: 165999
stream:pref_filled: 39025
stream:pref_useful: 12447
stream:pref_late: 787
stream:misses: 237
stream:misses_by_poll: 0

CS: 
CS:times selected: 7058
CS:pref_filled: 2465
CS:pref_useful: 2358
CS:pref_late: 559
CS:misses: 698
CS:misses_by_poll: 0

CPLX: 
CPLX:times selected: 155420
CPLX:pref_filled: 16565
CPLX:pref_useful: 2787
CPLX:pref_late: 52
CPLX:misses: 852
CPLX:misses_by_poll: 0

NL_L1: 
NL:times selected: 519
NL:pref_filled: 345
NL:pref_useful: 220
NL:pref_late: 1
NL:misses: 9
NL:misses_by_poll: 0

total selections: 328996
total_filled: 26202
total_useful: 7444
total_late: 1448
total_polluted: 0
total_misses_after_warmup: 391833
conflicts: 3386288
Degree Incremented Times: 60
Degree Decremented Times: 114863

L1 IP Table Write Accesses: 3620169
L1 IP Table Read Accesses: 233881
L1 RST Write Accesses: 86507
L1 RST Read Accesses: 173014
L1 CSPT Write Accesses: 86507
L1 CSPT Read Accesses: 168426
L1 RR Filter Tag Write Accesses: 81340
L1 RR Filter Tag Read Accesses: 4057174
L1 IP Table Tag Write Accesses: 7102961
L1 IP Table Tag Read Accesses: 7102961
L1 RST Tag Write Accesses: 0
L1 RST Tag Read Accesses: 891246
L1 RR Filter Write Accesses: 0
L1 RR Filter Read Accesses: 153387
test: 48588

DRAM Statistics
 CHANNEL 0
 RQ ROW_BUFFER_HIT:       4516  ROW_BUFFER_MISS:      19895
 DBUS_CONGESTED:          6
 WQ ROW_BUFFER_HIT:        723  ROW_BUFFER_MISS:       7485  FULL:          0

 AVG_CONGESTED_CYCLE: 4
 All warmup complete: 2
Channel 0 Bank busy for read cycles: 0
Channel 0 Bank busy for write cycles: 0
Channel 0
Rank 0
0banks busy for read cycles: 53950026
0banks busy for write cycles: 5731
1banks busy for read cycles: 1872010
1banks busy for write cycles: 919479
2banks busy for read cycles: 449048
2banks busy for write cycles: 168066
3banks busy for read cycles: 35025
3banks busy for write cycles: 29810
4banks busy for read cycles: 13026
4banks busy for write cycles: 14353
5banks busy for read cycles: 13009
5banks busy for write cycles: 6532
6banks busy for read cycles: 19445
6banks busy for write cycles: 9261
7banks busy for read cycles: 14398
7banks busy for write cycles: 4840
8banks busy for read cycles: 45
8banks busy for write cycles: 2354

CPU 0 Branch Prediction Accuracy: 99.913% MPKI: 0.15656 Average ROB Occupancy at Mispredict: 48.1445
Branch types
NOT_BRANCH: 41001605 82.0032%
BRANCH_DIRECT_JUMP: 541940 1.08388%
BRANCH_INDIRECT: 59716 0.119432%
BRANCH_CONDITIONAL: 5916840 11.8337%
BRANCH_DIRECT_CALL: 1005459 2.01092%
BRANCH_INDIRECT_CALL: 234433 0.468866%
BRANCH_RETURN: 1239871 2.47974%
BRANCH_OTHER: 0 0%

DRAM PAGES: 1048576
Allocated PAGES: 5878
