
*** ChampSim Multicore Out-of-Order Simulator ***

Warmup Instructions: 50000000
Simulation Instructions: 50000000
Number of CPUs: 1
LLC sets: 2048
LLC ways: 16
Off-chip DRAM Size: 4096 MB Channels: 1 Width: 64-bit Data Rate: 6400 MT/s
CPU 0 runs ../IPC-traces//server_010.champsimtrace.xz
.xz
NUM_OF_IPS_IN_CRITICAL_IP_TRAINING: 64
NUM_OF_CRITICAL_IP_TRAINING_TABLE_WAYS: 2
NUM_OF_CRITICAL_IP_TRAINING_TABLE_SETS: 32
WOBBLY_CRITICAL_IP_CACHE_SETS: 32
WOBBLY_CRITICAL_IP_CACHE_WAYS: 4
BTB has LRU replacement policy
ITLB has LRU replacement policy
DTLB has LRU replacement policy
STLB has LRU replacement policy
CPU 0 L1I next line prefetcher
L1I has LRU replacement policy
L1D has LRU replacement policy
Bingo PHT WAYS: 16 and PHT_SIZE: 16384
Initialize SRRIP state for L2C
Initialize DRRIP state for LLC
Heartbeat CPU 0 instructions: 10000001 cycles: 2763730 heartbeat IPC: 3.6183 cumulative IPC: 3.6183 (Simulation time: 0 hr 3 min 8 sec) 
Heartbeat CPU 0 instructions: 20000003 cycles: 5519403 heartbeat IPC: 3.62888 cumulative IPC: 3.62358 (Simulation time: 0 hr 5 min 29 sec) 
Heartbeat CPU 0 instructions: 30000001 cycles: 8273845 heartbeat IPC: 3.6305 cumulative IPC: 3.62588 (Simulation time: 0 hr 7 min 48 sec) 
Heartbeat CPU 0 instructions: 40000000 cycles: 11029059 heartbeat IPC: 3.62948 cumulative IPC: 3.62678 (Simulation time: 0 hr 10 min 0 sec) 
Heartbeat CPU 0 instructions: 50000003 cycles: 13785590 heartbeat IPC: 3.62775 cumulative IPC: 3.62698 (Simulation time: 0 hr 11 min 55 sec) 

Warmup complete CPU 0 instructions: 50000003 cycles: 13785590 (Simulation time: 0 hr 11 min 55 sec) 

% increase in all ip prefetch 336.862
% increase in all ip prefetch 1.29718
Heartbeat CPU 0 instructions: 60000001 cycles: 27402358 heartbeat IPC: 0.734389 cumulative IPC: 0.734389 (Simulation time: 0 hr 14 min 20 sec) 
Heartbeat CPU 0 instructions: 70000000 cycles: 41064114 heartbeat IPC: 0.73197 cumulative IPC: 0.733177 (Simulation time: 0 hr 16 min 37 sec) 
Heartbeat CPU 0 instructions: 80000003 cycles: 54719735 heartbeat IPC: 0.732299 cumulative IPC: 0.732884 (Simulation time: 0 hr 18 min 53 sec) 
Heartbeat CPU 0 instructions: 90000002 cycles: 68144210 heartbeat IPC: 0.744908 cumulative IPC: 0.735854 (Simulation time: 0 hr 21 min 8 sec) 
Heartbeat CPU 0 instructions: 100000000 cycles: 95560858 heartbeat IPC: 0.364742 cumulative IPC: 0.611432 (Simulation time: 0 hr 24 min 47 sec) 
Finished CPU 0 instructions: 50000001 cycles: 81775289 cumulative IPC: 0.611432 (Simulation time: 0 hr 24 min 47 sec) 

ChampSim completed all CPUs

Region of Interest Statistics

CPU 0 cumulative IPC: 0.611432 instructions: 50000001 cycles: 81775289

CPU 0 Average Load ROB stall cycles: 2.67905e+07
CPU 0 Fraction of times ROB stalled by Loads: 46.8828
CPU 0 Percentage of Load stall cycles in Total stall cycles: 3.00645e+08
Issued all: 33617111
Issued LT all: 27820381
rob_not_full_when_issued_lt_all: 20935849
Issued LT one: 22581027
rob_not_full_when_issued_lt_one: 16168792
 Total stall cycles: 67962278
 Total load stall cycles: 204325518187808
CPU 0 NUM of IPS identified critical: 0
CPU 0 Num of Load IPs stalling ROB: 24196
Threshold modification factor: -1
Max PIST entries: 64
Min PIST entries: 0
Avg PIST entries: 31.68
Trouble in retire width: 0.937129
MaC = Marked as critical.
lt_50_percent_before_Mac: 0
gt_90_percent_before_Mac: 0
gt_75_percent_before_Mac: 0
gt_50_percent_before_Mac: 0
stall_proportion_bin_same_before_after: 0
stall_proportion_bin_lower_before_after: 0
stall_proportion_bin_upper_before_after: 0
average_stall_proportion_before: -nan
average_stall_proportion_after: -nan
Critical IP stalls, total frequency: 0
Non-critical IP stalls, total frequency: 3575656
Total Freq all stalling IPs: 3575656
stat_90_percent_critical_ip_stalls_freq: 3218055
stat_90_percent_non_critical_ip_stalls_freq: 357601
Critical_IP_ROB_Stalls_Bucket_0: 0
Non-critical_IP_ROB_Stalls_Bucket_0: 1386811
Critical_IP_ROB_Stalls_Bucket_1: 0
Non-critical_IP_ROB_Stalls_Bucket_1: 818317
Critical_IP_ROB_Stalls_Bucket_2: 0
Non-critical_IP_ROB_Stalls_Bucket_2: 351289
Critical_IP_ROB_Stalls_Bucket_3: 0
Non-critical_IP_ROB_Stalls_Bucket_3: 202819
Critical_IP_ROB_Stalls_Bucket_4: 0
Non-critical_IP_ROB_Stalls_Bucket_4: 158456
Critical_IP_ROB_Stalls_Bucket_5: 0
Non-critical_IP_ROB_Stalls_Bucket_5: 153712
Critical_IP_ROB_Stalls_Bucket_6: 0
Non-critical_IP_ROB_Stalls_Bucket_6: 504252
0 => IPs accounting for >50 percent of stalls, 1 => 55, 2 => 60, 3 => 65 and so on till 90.
percent50: 50.1617 num IPs:  79
percent55: 55.0334 num IPs: 114
percent60: 60.037 num IPs: 184
percent65: 65.0182 num IPs: 323
percent70: 70.0097 num IPs: 542
percent75: 75.0105 num IPs: 838
percent80: 80.0038 num IPs: 1345
percent85: 85.003 num IPs: 2339
percent90: 90.0002 num IPs: 4197
Critical_ROB_Stalls_Percent_0_Bucket_0: 420224
Non-critical_ROB_Stalls_Percent_0_Bucket_0: 966587
Critical_ROB_Stalls_Percent_0_Bucket_1: 290397
Non-critical_ROB_Stalls_Percent_0_Bucket_1: 527920
Critical_ROB_Stalls_Percent_0_Bucket_2: 185963
Non-critical_ROB_Stalls_Percent_0_Bucket_2: 165326
Critical_ROB_Stalls_Percent_0_Bucket_3: 147325
Non-critical_ROB_Stalls_Percent_0_Bucket_3: 55494
Critical_ROB_Stalls_Percent_0_Bucket_4: 132607
Non-critical_ROB_Stalls_Percent_0_Bucket_4: 25849
Critical_ROB_Stalls_Percent_0_Bucket_5: 139373
Non-critical_ROB_Stalls_Percent_0_Bucket_5: 14339
Critical_ROB_Stalls_Percent_0_Bucket_6: 477720
Non-critical_ROB_Stalls_Percent_0_Bucket_6: 26532
Critical_ROB_Stalls_Percent_1_Bucket_0: 477495
Non-critical_ROB_Stalls_Percent_1_Bucket_0: 909316
Critical_ROB_Stalls_Percent_1_Bucket_1: 372972
Non-critical_ROB_Stalls_Percent_1_Bucket_1: 445345
Critical_ROB_Stalls_Percent_1_Bucket_2: 209814
Non-critical_ROB_Stalls_Percent_1_Bucket_2: 141475
Critical_ROB_Stalls_Percent_1_Bucket_3: 150878
Non-critical_ROB_Stalls_Percent_1_Bucket_3: 51941
Critical_ROB_Stalls_Percent_1_Bucket_4: 134173
Non-critical_ROB_Stalls_Percent_1_Bucket_4: 24283
Critical_ROB_Stalls_Percent_1_Bucket_5: 140952
Non-critical_ROB_Stalls_Percent_1_Bucket_5: 12760
Critical_ROB_Stalls_Percent_1_Bucket_6: 481520
Non-critical_ROB_Stalls_Percent_1_Bucket_6: 22732
Critical_ROB_Stalls_Percent_2_Bucket_0: 546167
Non-critical_ROB_Stalls_Percent_2_Bucket_0: 840644
Critical_ROB_Stalls_Percent_2_Bucket_1: 437150
Non-critical_ROB_Stalls_Percent_2_Bucket_1: 381167
Critical_ROB_Stalls_Percent_2_Bucket_2: 233967
Non-critical_ROB_Stalls_Percent_2_Bucket_2: 117322
Critical_ROB_Stalls_Percent_2_Bucket_3: 159348
Non-critical_ROB_Stalls_Percent_2_Bucket_3: 43471
Critical_ROB_Stalls_Percent_2_Bucket_4: 138581
Non-critical_ROB_Stalls_Percent_2_Bucket_4: 19875
Critical_ROB_Stalls_Percent_2_Bucket_5: 142942
Non-critical_ROB_Stalls_Percent_2_Bucket_5: 10770
Critical_ROB_Stalls_Percent_2_Bucket_6: 488563
Non-critical_ROB_Stalls_Percent_2_Bucket_6: 15689
Critical_ROB_Stalls_Percent_3_Bucket_0: 626217
Non-critical_ROB_Stalls_Percent_3_Bucket_0: 760594
Critical_ROB_Stalls_Percent_3_Bucket_1: 499156
Non-critical_ROB_Stalls_Percent_3_Bucket_1: 319161
Critical_ROB_Stalls_Percent_3_Bucket_2: 255109
Non-critical_ROB_Stalls_Percent_3_Bucket_2: 96180
Critical_ROB_Stalls_Percent_3_Bucket_3: 166471
Non-critical_ROB_Stalls_Percent_3_Bucket_3: 36348
Critical_ROB_Stalls_Percent_3_Bucket_4: 141364
Non-critical_ROB_Stalls_Percent_3_Bucket_4: 17092
Critical_ROB_Stalls_Percent_3_Bucket_5: 144698
Non-critical_ROB_Stalls_Percent_3_Bucket_5: 9014
Critical_ROB_Stalls_Percent_3_Bucket_6: 491813
Non-critical_ROB_Stalls_Percent_3_Bucket_6: 12439
Critical_ROB_Stalls_Percent_4_Bucket_0: 707088
Non-critical_ROB_Stalls_Percent_4_Bucket_0: 679723
Critical_ROB_Stalls_Percent_4_Bucket_1: 561645
Non-critical_ROB_Stalls_Percent_4_Bucket_1: 256672
Critical_ROB_Stalls_Percent_4_Bucket_2: 275111
Non-critical_ROB_Stalls_Percent_4_Bucket_2: 76178
Critical_ROB_Stalls_Percent_4_Bucket_3: 172928
Non-critical_ROB_Stalls_Percent_4_Bucket_3: 29891
Critical_ROB_Stalls_Percent_4_Bucket_4: 144538
Non-critical_ROB_Stalls_Percent_4_Bucket_4: 13918
Critical_ROB_Stalls_Percent_4_Bucket_5: 146744
Non-critical_ROB_Stalls_Percent_4_Bucket_5: 6968
Critical_ROB_Stalls_Percent_4_Bucket_6: 495254
Non-critical_ROB_Stalls_Percent_4_Bucket_6: 8998
Critical_ROB_Stalls_Percent_5_Bucket_0: 800995
Non-critical_ROB_Stalls_Percent_5_Bucket_0: 585816
Critical_ROB_Stalls_Percent_5_Bucket_1: 626273
Non-critical_ROB_Stalls_Percent_5_Bucket_1: 192044
Critical_ROB_Stalls_Percent_5_Bucket_2: 288121
Non-critical_ROB_Stalls_Percent_5_Bucket_2: 63168
Critical_ROB_Stalls_Percent_5_Bucket_3: 176923
Non-critical_ROB_Stalls_Percent_5_Bucket_3: 25896
Critical_ROB_Stalls_Percent_5_Bucket_4: 146166
Non-critical_ROB_Stalls_Percent_5_Bucket_4: 12290
Critical_ROB_Stalls_Percent_5_Bucket_5: 147737
Non-critical_ROB_Stalls_Percent_5_Bucket_5: 5975
Critical_ROB_Stalls_Percent_5_Bucket_6: 495906
Non-critical_ROB_Stalls_Percent_5_Bucket_6: 8346
Critical_ROB_Stalls_Percent_6_Bucket_0: 909819
Non-critical_ROB_Stalls_Percent_6_Bucket_0: 476992
Critical_ROB_Stalls_Percent_6_Bucket_1: 673119
Non-critical_ROB_Stalls_Percent_6_Bucket_1: 145198
Critical_ROB_Stalls_Percent_6_Bucket_2: 301192
Non-critical_ROB_Stalls_Percent_6_Bucket_2: 50097
Critical_ROB_Stalls_Percent_6_Bucket_3: 181681
Non-critical_ROB_Stalls_Percent_6_Bucket_3: 21138
Critical_ROB_Stalls_Percent_6_Bucket_4: 148305
Non-critical_ROB_Stalls_Percent_6_Bucket_4: 10151
Critical_ROB_Stalls_Percent_6_Bucket_5: 148829
Non-critical_ROB_Stalls_Percent_6_Bucket_5: 4883
Critical_ROB_Stalls_Percent_6_Bucket_6: 497716
Non-critical_ROB_Stalls_Percent_6_Bucket_6: 6536
Critical_ROB_Stalls_Percent_7_Bucket_0: 1017254
Non-critical_ROB_Stalls_Percent_7_Bucket_0: 369557
Critical_ROB_Stalls_Percent_7_Bucket_1: 717629
Non-critical_ROB_Stalls_Percent_7_Bucket_1: 100688
Critical_ROB_Stalls_Percent_7_Bucket_2: 315101
Non-critical_ROB_Stalls_Percent_7_Bucket_2: 36188
Critical_ROB_Stalls_Percent_7_Bucket_3: 187771
Non-critical_ROB_Stalls_Percent_7_Bucket_3: 15048
Critical_ROB_Stalls_Percent_7_Bucket_4: 151366
Non-critical_ROB_Stalls_Percent_7_Bucket_4: 7090
Critical_ROB_Stalls_Percent_7_Bucket_5: 150464
Non-critical_ROB_Stalls_Percent_7_Bucket_5: 3248
Critical_ROB_Stalls_Percent_7_Bucket_6: 499833
Non-critical_ROB_Stalls_Percent_7_Bucket_6: 4419
Critical_ROB_Stalls_Percent_8_Bucket_0: 1133903
Non-critical_ROB_Stalls_Percent_8_Bucket_0: 252908
Critical_ROB_Stalls_Percent_8_Bucket_1: 755872
Non-critical_ROB_Stalls_Percent_8_Bucket_1: 62445
Critical_ROB_Stalls_Percent_8_Bucket_2: 328089
Non-critical_ROB_Stalls_Percent_8_Bucket_2: 23200
Critical_ROB_Stalls_Percent_8_Bucket_3: 192872
Non-critical_ROB_Stalls_Percent_8_Bucket_3: 9947
Critical_ROB_Stalls_Percent_8_Bucket_4: 154237
Non-critical_ROB_Stalls_Percent_8_Bucket_4: 4219
Critical_ROB_Stalls_Percent_8_Bucket_5: 151656
Non-critical_ROB_Stalls_Percent_8_Bucket_5: 2056
Critical_ROB_Stalls_Percent_8_Bucket_6: 501426
Non-critical_ROB_Stalls_Percent_8_Bucket_6: 2826
Average ROB occupancy Load Stall Begin: 110.947
Average ROB occupancy Load Stall End: 119.354
Min ROB occupancy Load Stall Begin: 1
Max ROB occupancy Load Stall Begin: 352
Min ROB occupancy Load Stall End: 1
Max ROB occupancy Load Stall End: 352
Average ROB occupancy Critical Load Stall Begin: -nan
Average ROB occupancy Critical Load Stall End: -nan
Min ROB occupancy Critical Load Stall Begin: 400
Max ROB occupancy Critical Load Stall Begin: 0
Min ROB occupancy Critical Load Stall End: 400
Max ROB occupancy Critical Load Stall End: 0
 ROB Load Stall Begin Bucket Count 0: 1690662
 ROB Load Stall End Bucket Count 0: 1386811
 ROB Critical Load Stall Begin Bucket Count 0: 0
 ROB Critical Load Stall End Bucket Count 0: 0
 ROB Load Stall Begin Bucket Count 1: 614492
 ROB Load Stall End Bucket Count 1: 818317
 ROB Critical Load Stall Begin Bucket Count 1: 0
 ROB Critical Load Stall End Bucket Count 1: 0
 ROB Load Stall Begin Bucket Count 2: 292457
 ROB Load Stall End Bucket Count 2: 351289
 ROB Critical Load Stall Begin Bucket Count 2: 0
 ROB Critical Load Stall End Bucket Count 2: 0
 ROB Load Stall Begin Bucket Count 3: 180662
 ROB Load Stall End Bucket Count 3: 202819
 ROB Critical Load Stall Begin Bucket Count 3: 0
 ROB Critical Load Stall End Bucket Count 3: 0
 ROB Load Stall Begin Bucket Count 4: 154154
 ROB Load Stall End Bucket Count 4: 158456
 ROB Critical Load Stall Begin Bucket Count 4: 0
 ROB Critical Load Stall End Bucket Count 4: 0
 ROB Load Stall Begin Bucket Count 5: 148557
 ROB Load Stall End Bucket Count 5: 153712
 ROB Critical Load Stall Begin Bucket Count 5: 0
 ROB Critical Load Stall End Bucket Count 5: 0
 ROB Load Stall Begin Bucket Count 6: 494672
 ROB Load Stall End Bucket Count 6: 504252
 ROB Critical Load Stall Begin Bucket Count 6: 0
 ROB Critical Load Stall End Bucket Count 6: 0
PIST Tag Read Accesses: 2748224
PIST Read Accesses: 1374112
PIST Tag Write Accesses: 2748224
PIST Write Accesses: 1374112
Criticality detector called times: 2452202
Max global_stall_cycles_count: 2701872
Threshold Modified: 1 times, factor: -1
Sturdy critical IP cache stats: 
 Unused entries: 0
CIC Tag Read Accesses: 0
CIC Read Accesses: 0
CIC Tag Write Accesses: 0
CIC Write Accesses: 0
Wobbly critical IP cache stats: 
 Unused entries: 90
CIC Tag Read Accesses: 81414600
CIC Read Accesses: 0
CIC Tag Write Accesses: 124558
CIC Write Accesses: 0
ITLB TOTAL     ACCESS:    9523904  HIT:    9308469  MISS:     215435  HIT %:     97.738  MISS %:    2.26205   MPKI: 4.3087
ITLB LOAD TRANSLATION ACCESS:    8391049  HIT:    8329706  MISS:      61343  HIT %:    99.2689  MISS %:   0.731053   MPKI: 1.22686
ITLB TRANSLATION FROM L1D PREFETCHER ACCESS:    1132855  HIT:     978763  MISS:     154092  HIT %:    86.3979  MISS %:    13.6021   MPKI: 3.08184
ITLB PREFETCH  REQUESTED:          0  ISSUED:          0  USEFUL:     126575  USELESS:      27513
ITLB USEFUL LOAD PREFETCHES:     126575 PREFETCH ISSUED TO LOWER LEVEL:          0  ACCURACY: inf
ITLB TIMELY PREFETCHES:     126575 LATE PREFETCHES: 1047 DROPPED PREFETCHES: 10171
ITLB PREFETCHES SAME FILL-ORIGIN LEVEL: 0 DIFFERENT FILL-ORIGIN LEVEL: 0
ITLB AVERAGE MISS LATENCY: 225511 cycles
ITLB RQ	ACCESS:   12920356	FORWARD:          0	MERGED:    3357528	TO_CACHE:    9562828

DTLB TOTAL     ACCESS:   10102727  HIT:    8784364  MISS:    1318363  HIT %:    86.9504  MISS %:    13.0496   MPKI: 26.3673
DTLB LOAD TRANSLATION ACCESS:   10102727  HIT:    8784364  MISS:    1318363  HIT %:    86.9504  MISS %:    13.0496   MPKI: 26.3673
DTLB PREFETCH  REQUESTED:          0  ISSUED:          0  USEFUL:          0  USELESS:          0
DTLB USEFUL LOAD PREFETCHES:          0 PREFETCH ISSUED TO LOWER LEVEL:          0  ACCURACY: -nan
DTLB TIMELY PREFETCHES:          0 LATE PREFETCHES: 0 DROPPED PREFETCHES: 0
DTLB PREFETCHES SAME FILL-ORIGIN LEVEL: 0 DIFFERENT FILL-ORIGIN LEVEL: 0
DTLB AVERAGE MISS LATENCY: 11.6835 cycles
DTLB RQ	ACCESS:   13074823	FORWARD:          0	MERGED:    2932918	TO_CACHE:   10141905

STLB TOTAL     ACCESS:    1533798  HIT:    1426459  MISS:     107339  HIT %:    93.0018  MISS %:    6.99825   MPKI: 2.14678
STLB LOAD TRANSLATION ACCESS:    1378659  HIT:    1296637  MISS:      82022  HIT %:    94.0506  MISS %:     5.9494   MPKI: 1.64044
STLB TRANSLATION FROM L1D PREFETCHER ACCESS:     155139  HIT:     129822  MISS:      25317  HIT %:    83.6811  MISS %:    16.3189   MPKI: 0.50634
STLB PREFETCH  REQUESTED:          0  ISSUED:          0  USEFUL:      14777  USELESS:      10525
STLB USEFUL LOAD PREFETCHES:      14777 PREFETCH ISSUED TO LOWER LEVEL:          0  ACCURACY: inf
STLB TIMELY PREFETCHES:      14777 LATE PREFETCHES: 0 DROPPED PREFETCHES: 10171
STLB PREFETCHES SAME FILL-ORIGIN LEVEL: 0 DIFFERENT FILL-ORIGIN LEVEL: 0
STLB AVERAGE MISS LATENCY: 46.9986 cycles
STLB RQ	ACCESS:    1543968	FORWARD:          0	MERGED:          0	TO_CACHE:    1543968

STLB Hit, L1D data hit: 0
STLB Hit, L2C data hit: 0
STLB Hit, LLC data hit: 0
STLB Hit, LLC data miss: 0
STLB STLB hints to L2: 0
L1D TOTAL     ACCESS:   12943441  HIT:   11283458  MISS:    1659983  HIT %:    87.1751  MISS %:    12.8249   MPKI: 33.1997
L1D LOAD      ACCESS:    8189372  HIT:    6622364  MISS:    1567008  HIT %:    80.8653  MISS %:    19.1347   MPKI: 31.3402
L1D RFO       ACCESS:    4754069  HIT:    4661094  MISS:      92975  HIT %:    98.0443  MISS %:    1.95569   MPKI: 1.8595
L1D PREFETCH  REQUESTED:          0  ISSUED:          0  USEFUL:          0  USELESS:          0
L1D USEFUL LOAD PREFETCHES:          0 PREFETCH ISSUED TO LOWER LEVEL:          0  ACCURACY: -nan
L1D TIMELY PREFETCHES:          0 LATE PREFETCHES: 0 DROPPED PREFETCHES: 0
L1D PREFETCHES SAME FILL-ORIGIN LEVEL: 0 DIFFERENT FILL-ORIGIN LEVEL: 0
L1D AVERAGE MISS LATENCY: 21.065 cycles
L1D RQ	ACCESS:   11659844	FORWARD:          0	MERGED:    3365374	TO_CACHE:    8212572
L1D WQ	ACCESS:    4965307	FORWARD:      81898	MERGED:     103056	TO_CACHE:    4862251

L1D UNIQUE REGIONS ACCESSED: 0
L1D REGIONS CONFLICTS: 0
L1D Cross Page Prefetch Requests: 0
L1D Same Page Prefetch Requests: 0
L1D ROI Sum of L1D PQ occupancy: 0
L1D PREFETCHES PUSHED FROM L2C: 0
L1I TOTAL     ACCESS:   12775134  HIT:   10961786  MISS:    1813348  HIT %:    85.8056  MISS %:    14.1944   MPKI: 36.267
L1I LOAD      ACCESS:   10141031  HIT:    9917597  MISS:     223434  HIT %:    97.7967  MISS %:    2.20327   MPKI: 4.46868
L1I PREFETCH  ACCESS:    2634103  HIT:    1044189  MISS:    1589914  HIT %:    39.6412  MISS %:    60.3588   MPKI: 31.7983
L1I PREFETCH  REQUESTED:    2859791  ISSUED:    2849427  USEFUL:    1050216  USELESS:     539672
L1I USEFUL LOAD PREFETCHES:    1050216 PREFETCH ISSUED TO LOWER LEVEL:    1655155  ACCURACY: 63.4512
L1I TIMELY PREFETCHES:    1050216 LATE PREFETCHES: 30311 DROPPED PREFETCHES: 25222
L1I PREFETCHES SAME FILL-ORIGIN LEVEL: 1655155 DIFFERENT FILL-ORIGIN LEVEL: 0
L1I AVERAGE MISS LATENCY: 735319 cycles
L1I RQ	ACCESS:   14597151	FORWARD:          0	MERGED:    4432283	TO_CACHE:   10164868
L1I PQ	ACCESS:    2849427	FORWARD:          0	MERGED:      93939	TO_CACHE:    2755488

BTB TOTAL     ACCESS:    5599981  HIT:    4872062  MISS:     727919  HIT %:    87.0014  MISS %:    12.9986   MPKI: 14.5584
BTB BRANCH_DIRECT_JUMP	ACCESS:     449946  HIT:     393873  MISS:      56073
BTB BRANCH_INDIRECT	ACCESS:     140210  HIT:     110632  MISS:      29578
BTB BRANCH_CONDITIONAL	ACCESS:    3238716  HIT:    3009561  MISS:     229155
BTB BRANCH_DIRECT_CALL	ACCESS:     701578  HIT:     595974  MISS:     105604
BTB BRANCH_INDIRECT_CALL	ACCESS:     168971  HIT:     157981  MISS:      10990
BTB BRANCH_RETURN	ACCESS:     900560  HIT:     604041  MISS:     296519
BTB BRANCH_OTHER ACCESS:          0  HIT:          0  MISS:          0

L2C TOTAL     ACCESS:    4179286  HIT:    3065887  MISS:    1113399  HIT %:    73.3591  MISS %:    26.6409   MPKI: 22.268
L2C LOAD      ACCESS:    1760102  HIT:    1527184  MISS:     232918  HIT %:    86.7668  MISS %:    13.2332   MPKI: 4.65836
L2C DATA LOAD MPKI: 2.97338
L2C INSTRUCTION LOAD MPKI: 1.68498
L2C RFO       ACCESS:      92975  HIT:      48579  MISS:      44396  HIT %:    52.2495  MISS %:    47.7505   MPKI: 0.88792
L2C PREFETCH  ACCESS:    1931885  HIT:    1169835  MISS:     762050  HIT %:    60.5541  MISS %:    39.4459   MPKI: 15.241
L2C DATA PREFETCH MPKI: 3.20534
L2C INSTRUCTION PREFETCH MPKI: 12.0357
L2C WRITEBACK ACCESS:     239275  HIT:     224468  MISS:      14807  HIT %:    93.8117  MISS %:    6.18828   MPKI: 0.29614
L2C LOAD TRANSLATION ACCESS:     108400  HIT:      60027  MISS:      48373  HIT %:    55.3755  MISS %:    44.6245   MPKI: 0.96746
L2C TRANSLATION FROM L1D PREFETCHER ACCESS:      46649  HIT:      35794  MISS:      10855  HIT %:    76.7305  MISS %:    23.2695   MPKI: 0.2171
L2C PREFETCH  REQUESTED:     328016  ISSUED:     328016  USEFUL:     140209  USELESS:     633797
L2C USEFUL LOAD PREFETCHES:     140209 PREFETCH ISSUED TO LOWER LEVEL:     765320  ACCURACY: 18.3203
L2C TIMELY PREFETCHES:     140209 LATE PREFETCHES: 3270 DROPPED PREFETCHES: 0
L2C PREFETCHES SAME FILL-ORIGIN LEVEL: 163537 DIFFERENT FILL-ORIGIN LEVEL: 0
L2C AVERAGE MISS LATENCY: 39.8455 cycles
L2C RQ	ACCESS:    2008155	FORWARD:          0	MERGED:          0	TO_CACHE:    2008126
L2C WQ	ACCESS:     239275	FORWARD:         35	MERGED:          0	TO_CACHE:     239275
L2C PQ	ACCESS:    1948241	FORWARD:          0	MERGED:          0	TO_CACHE:    1948235

L2C Instructions Evicting Data 224762
L2C Translations Evicting Data 19827
L2C Data Evicting Data 116938
L2C Instructions Evicting Instructions 425177
L2C Translations Evicting Instructions 36215
L2C Data Evicting Instructions 217163
L2C Instructions Evicting Translations 36093
L2C Translations Evicting Translations 3186
L2C Data Evicting Translations 19231
L2C Dense regions hint from L2: 0
PSCL5 TOTAL     ACCESS:     117509  HIT:     117509  MISS:          0  HIT %:        100  MISS %:          0   MPKI: 0
PSCL5 LOAD TRANSLATION ACCESS:      82021  HIT:      82021  MISS:          0  HIT %:        100  MISS %:          0   MPKI: 0
PSCL5 TRANSLATION FROM L1D PREFETCHER ACCESS:      35488  HIT:      35488  MISS:          0  HIT %:        100  MISS %:          0   MPKI: 0
PSCL5 PREFETCH  REQUESTED:          0  ISSUED:          0  USEFUL:          0  USELESS:          0
PSCL5 USEFUL LOAD PREFETCHES:          0 PREFETCH ISSUED TO LOWER LEVEL:          0  ACCURACY: -nan
PSCL5 TIMELY PREFETCHES:          0 LATE PREFETCHES: 0 DROPPED PREFETCHES: 0
PSCL5 PREFETCHES SAME FILL-ORIGIN LEVEL: 0 DIFFERENT FILL-ORIGIN LEVEL: 0

PSCL4 TOTAL     ACCESS:     110325  HIT:     110015  MISS:        310  HIT %:     99.719  MISS %:   0.280988   MPKI: 0.0062
PSCL4 LOAD TRANSLATION ACCESS:      77388  HIT:      77078  MISS:        310  HIT %:    99.5994  MISS %:   0.400579   MPKI: 0.0062
PSCL4 TRANSLATION FROM L1D PREFETCHER ACCESS:      32937  HIT:      32937  MISS:          0  HIT %:        100  MISS %:          0   MPKI: 0
PSCL4 PREFETCH  REQUESTED:          0  ISSUED:          0  USEFUL:          0  USELESS:          0
PSCL4 USEFUL LOAD PREFETCHES:          0 PREFETCH ISSUED TO LOWER LEVEL:          0  ACCURACY: -nan
PSCL4 TIMELY PREFETCHES:          0 LATE PREFETCHES: 0 DROPPED PREFETCHES: 0
PSCL4 PREFETCHES SAME FILL-ORIGIN LEVEL: 0 DIFFERENT FILL-ORIGIN LEVEL: 0

PSCL3 TOTAL     ACCESS:     115860  HIT:     115006  MISS:        854  HIT %:    99.2629  MISS %:   0.737096   MPKI: 0.01708
PSCL3 LOAD TRANSLATION ACCESS:      81694  HIT:      80840  MISS:        854  HIT %:    98.9546  MISS %:    1.04536   MPKI: 0.01708
PSCL3 TRANSLATION FROM L1D PREFETCHER ACCESS:      34166  HIT:      34166  MISS:          0  HIT %:        100  MISS %:          0   MPKI: 0
PSCL3 PREFETCH  REQUESTED:          0  ISSUED:          0  USEFUL:          0  USELESS:          0
PSCL3 USEFUL LOAD PREFETCHES:          0 PREFETCH ISSUED TO LOWER LEVEL:          0  ACCURACY: -nan
PSCL3 TIMELY PREFETCHES:          0 LATE PREFETCHES: 0 DROPPED PREFETCHES: 0
PSCL3 PREFETCHES SAME FILL-ORIGIN LEVEL: 0 DIFFERENT FILL-ORIGIN LEVEL: 0

PSCL2 TOTAL     ACCESS:     110816  HIT:      82029  MISS:      28787  HIT %:    74.0227  MISS %:    25.9773   MPKI: 0.57574
PSCL2 LOAD TRANSLATION ACCESS:      85360  HIT:      56573  MISS:      28787  HIT %:    66.2758  MISS %:    33.7242   MPKI: 0.57574
PSCL2 TRANSLATION FROM L1D PREFETCHER ACCESS:      25456  HIT:      25456  MISS:          0  HIT %:        100  MISS %:          0   MPKI: 0
PSCL2 PREFETCH  REQUESTED:          0  ISSUED:          0  USEFUL:          0  USELESS:          0
PSCL2 USEFUL LOAD PREFETCHES:          0 PREFETCH ISSUED TO LOWER LEVEL:          0  ACCURACY: -nan
PSCL2 TIMELY PREFETCHES:          0 LATE PREFETCHES: 0 DROPPED PREFETCHES: 0
PSCL2 PREFETCHES SAME FILL-ORIGIN LEVEL: 0 DIFFERENT FILL-ORIGIN LEVEL: 0

LLC TOTAL     ACCESS:    1222532  HIT:    1155829  MISS:      66703  HIT %:    94.5439  MISS %:    5.45614   MPKI: 1.33406
LLC LOAD      ACCESS:     229657  HIT:     212704  MISS:      16953  HIT %:    92.6181  MISS %:    7.38188   MPKI: 0.33906
LLC RFO       ACCESS:      44385  HIT:      35337  MISS:       9048  HIT %:    79.6147  MISS %:    20.3853   MPKI: 0.18096
LLC PREFETCH  ACCESS:     765320  HIT:     726092  MISS:      39228  HIT %:    94.8743  MISS %:     5.1257   MPKI: 0.78456
LLC WRITEBACK ACCESS:     123942  HIT:     123445  MISS:        497  HIT %:     99.599  MISS %:   0.400994   MPKI: 0.00994
LLC LOAD TRANSLATION ACCESS:      48373  HIT:      47416  MISS:        957  HIT %:    98.0216  MISS %:    1.97838   MPKI: 0.01914
LLC TRANSLATION FROM L1D PREFETCHER ACCESS:      10855  HIT:      10835  MISS:         20  HIT %:    99.8158  MISS %:   0.184247   MPKI: 0.0004
LLC PREFETCH  REQUESTED:          0  ISSUED:          0  USEFUL:       2917  USELESS:      35821
LLC USEFUL LOAD PREFETCHES:       2917 PREFETCH ISSUED TO LOWER LEVEL:      39228  ACCURACY: 7.43602
LLC TIMELY PREFETCHES:       2917 LATE PREFETCHES: 0 DROPPED PREFETCHES: 0
LLC PREFETCHES SAME FILL-ORIGIN LEVEL: 0 DIFFERENT FILL-ORIGIN LEVEL: 0
LLC AVERAGE MISS LATENCY: 170.651 cycles
LLC RQ	ACCESS:     333272	FORWARD:          0	MERGED:          0	TO_CACHE:     333270
LLC WQ	ACCESS:     123942	FORWARD:          2	MERGED:          0	TO_CACHE:     123942
LLC PQ	ACCESS:     765320	FORWARD:          0	MERGED:          0	TO_CACHE:     765320

LLC Dense regions hint to LLC: 0

RAW hits: 948373
Loads Generated: 12608216
Loads sent to L1D: 11659844
Stores Generated: 4965302
Stores sent to L1D: 4965307
Major fault: 0 Minor fault: 5909
Allocated PAGES: 5909
I-Shadow cache 408 bytes
Touched + WorthPF tables 6144 bytes 
MMA filter 174 bytes 
FNL filter 272 bytes 
TOTAL PREFETCHER STORAGE SIZE: 25174 bytes
CPU 0 L1I next line prefetcher final stats
[Bingo] PHT Access: 191086
[Bingo] PHT Hit PC+Addr: 90586
[Bingo] PHT Hit PC+Offs: 11306
[Bingo] PHT Miss: 89194
[Bingo] Prefetch PC+Addr: 0
[Bingo] Prefetch PC+Offs: 0
[Bingo] Useful PC+Addr: 0
[Bingo] Useful PC+Offs: 0
[Bingo] Useless PC+Addr: 0
[Bingo] Useless PC+Offs: 0
[Bingo] L1 Prefetch per Region: 0
[Bingo] L2 Prefetch per Region: 4.23719
[Bingo] L3 Prefetch per Region: 0
[Bingo] No Prefetch per Region: 27.7628
[Bingo] Number of Voters Mean: 2.82399
[Bingo] Number of Voters SD: 4.73777
PHT read accesses: 1402601
PHT write accesses: 76210
AT read accesses: 1374939
AT write accesses: 1422515
FT read accesses: 296199
FT write accesses: 191086
PS read accesses: 208964
PS write accesses: 101892
PHT tag read accesses: 3147772
PHT tag write accesses: 166796
AT tag read accesses: 46331245
AT tag write accesses: 1451234
FT tag read accesses: 29270333
FT tag write accesses: 381317
PS tag read accesses: 28654410
PS tag write accesses: 310593

DRAM Statistics
 CHANNEL 0
 RQ ROW_BUFFER_HIT:      20785  ROW_BUFFER_MISS:      45421
 DBUS_CONGESTED:         29
 WQ ROW_BUFFER_HIT:       6711  ROW_BUFFER_MISS:      43651  FULL:          0

 AVG_CONGESTED_CYCLE: 4
 All warmup complete: 2
Channel 0 Bank busy for read cycles: 0
Channel 0 Bank busy for write cycles: 0
Channel 0
Rank 0
0banks busy for read cycles: 75411264
0banks busy for write cycles: 11026
1banks busy for read cycles: 2141539
1banks busy for write cycles: 1286802
2banks busy for read cycles: 559589
2banks busy for write cycles: 419889
3banks busy for read cycles: 206156
3banks busy for write cycles: 221889
4banks busy for read cycles: 115847
4banks busy for write cycles: 156972
5banks busy for read cycles: 79018
5banks busy for write cycles: 144564
6banks busy for read cycles: 71323
6banks busy for write cycles: 138651
7banks busy for read cycles: 86222
7banks busy for write cycles: 163289
8banks busy for read cycles: 260729
8banks busy for write cycles: 300521

CPU 0 Branch Prediction Accuracy: 99.5528% MPKI: 0.89798 Average ROB Occupancy at Mispredict: 56.123
Branch types
NOT_BRANCH: 39958749 79.9175%
BRANCH_DIRECT_JUMP: 449946 0.899892%
BRANCH_INDIRECT: 140210 0.28042%
BRANCH_CONDITIONAL: 7679655 15.3593%
BRANCH_DIRECT_CALL: 701578 1.40316%
BRANCH_INDIRECT_CALL: 168971 0.337942%
BRANCH_RETURN: 900560 1.80112%
BRANCH_OTHER: 0 0%

DRAM PAGES: 1048576
Allocated PAGES: 5909
