
*** ChampSim Multicore Out-of-Order Simulator ***

Warmup Instructions: 50000000
Simulation Instructions: 50000000
Number of CPUs: 1
LLC sets: 2048
LLC ways: 16
Off-chip DRAM Size: 4096 MB Channels: 1 Width: 64-bit Data Rate: 6400 MT/s
CPU 0 runs ../IPC-traces//server_016.champsimtrace.xz
.xz
NUM_OF_IPS_IN_CRITICAL_IP_TRAINING: 64
NUM_OF_CRITICAL_IP_TRAINING_TABLE_WAYS: 2
NUM_OF_CRITICAL_IP_TRAINING_TABLE_SETS: 32
WOBBLY_CRITICAL_IP_CACHE_SETS: 32
WOBBLY_CRITICAL_IP_CACHE_WAYS: 4
BTB has LRU replacement policy
ITLB has LRU replacement policy
DTLB has LRU replacement policy
STLB has LRU replacement policy
CPU 0 L1I next line prefetcher
L1I has LRU replacement policy
IP Table Entries: 64
L1D has LRU replacement policy
Initialize SRRIP state for L2C
Initialize DRRIP state for LLC
Heartbeat CPU 0 instructions: 10000000 cycles: 2874253 heartbeat IPC: 3.47916 cumulative IPC: 3.47916 (Simulation time: 0 hr 3 min 46 sec) 
Heartbeat CPU 0 instructions: 20000000 cycles: 5743842 heartbeat IPC: 3.48482 cumulative IPC: 3.48199 (Simulation time: 0 hr 6 min 56 sec) 
Heartbeat CPU 0 instructions: 30000001 cycles: 8610385 heartbeat IPC: 3.48852 cumulative IPC: 3.48416 (Simulation time: 0 hr 9 min 34 sec) 
Heartbeat CPU 0 instructions: 40000001 cycles: 11763972 heartbeat IPC: 3.17099 cumulative IPC: 3.40021 (Simulation time: 0 hr 10 min 58 sec) 
Heartbeat CPU 0 instructions: 50000002 cycles: 14999436 heartbeat IPC: 3.09075 cumulative IPC: 3.33346 (Simulation time: 0 hr 12 min 2 sec) 

Warmup complete CPU 0 instructions: 50000002 cycles: 14999436 (Simulation time: 0 hr 12 min 2 sec) 

% increase in all ip prefetch 344.302
% increase in all ip prefetch -0.0090097
Heartbeat CPU 0 instructions: 60000001 cycles: 29621231 heartbeat IPC: 0.68391 cumulative IPC: 0.68391 (Simulation time: 0 hr 14 min 0 sec) 
Heartbeat CPU 0 instructions: 70000001 cycles: 45322613 heartbeat IPC: 0.636887 cumulative IPC: 0.659561 (Simulation time: 0 hr 16 min 18 sec) 
Heartbeat CPU 0 instructions: 80000000 cycles: 61207121 heartbeat IPC: 0.629544 cumulative IPC: 0.649243 (Simulation time: 0 hr 18 min 31 sec) 
Heartbeat CPU 0 instructions: 90000000 cycles: 76646241 heartbeat IPC: 0.647705 cumulative IPC: 0.648858 (Simulation time: 0 hr 20 min 44 sec) 
Heartbeat CPU 0 instructions: 100000000 cycles: 92363498 heartbeat IPC: 0.636243 cumulative IPC: 0.646295 (Simulation time: 0 hr 22 min 58 sec) 
Finished CPU 0 instructions: 50000000 cycles: 77364063 cumulative IPC: 0.646295 (Simulation time: 0 hr 22 min 58 sec) 

ChampSim completed all CPUs

Region of Interest Statistics

CPU 0 cumulative IPC: 0.646295 instructions: 50000000 cycles: 77364063

CPU 0 Average Load ROB stall cycles: 6.37066e+06
CPU 0 Fraction of times ROB stalled by Loads: 10.637
CPU 0 Percentage of Load stall cycles in Total stall cycles: 1.03284e+08
 Total stall cycles: 41313608
 Total load stall cycles: 42670471649642
CPU 0 NUM of IPS identified critical: 2
CPU 0 Num of Load IPs stalling ROB: 5038
Threshold modification factor: -1
Max PIST entries: 64
Min PIST entries: 0
Avg PIST entries: 28.74
Trouble in retire width: 0.743757
MaC = Marked as critical.
lt_50_percent_before_Mac: 2
gt_90_percent_before_Mac: 0
gt_75_percent_before_Mac: 0
gt_50_percent_before_Mac: 0
stall_proportion_bin_same_before_after: 0
stall_proportion_bin_lower_before_after: 0
stall_proportion_bin_upper_before_after: 0
average_stall_proportion_before: 0.054607
average_stall_proportion_after: 0.0623734
Critical IP stalls, total frequency: 18667
Non-critical IP stalls, total frequency: 616751
Critical_IP_ROB_Stalls_Bucket_0: 995
Non-critical_IP_ROB_Stalls_Bucket_0: 561439
Critical_IP_ROB_Stalls_Bucket_1: 16617
Non-critical_IP_ROB_Stalls_Bucket_1: 86678
Critical_IP_ROB_Stalls_Bucket_2: 786
Non-critical_IP_ROB_Stalls_Bucket_2: 35912
Critical_IP_ROB_Stalls_Bucket_3: 10
Non-critical_IP_ROB_Stalls_Bucket_3: 7161
Critical_IP_ROB_Stalls_Bucket_4: 4
Non-critical_IP_ROB_Stalls_Bucket_4: 1801
Critical_IP_ROB_Stalls_Bucket_5: 6
Non-critical_IP_ROB_Stalls_Bucket_5: 565
Critical_IP_ROB_Stalls_Bucket_6: 249
Non-critical_IP_ROB_Stalls_Bucket_6: 237
0 => IPs accounting for >50 percent of stalls, 1 => 55, 2 => 60, 3 => 65 and so on till 90.
percent50: 50.0623 num IPs:193
percent55: 55.0063 num IPs:258
percent60: 60.0573 num IPs:336
percent65: 65.0361 num IPs:429
percent70: 70.0147 num IPs:537
percent75: 75.0167 num IPs:659
percent80: 80.0343 num IPs:791
percent85: 85.0171 num IPs:945
percent90: 90.0145 num IPs:1134
Critical_ROB_Stalls_Percent_0_Bucket_0: 214938
Non-critical_ROB_Stalls_Percent_0_Bucket_0: 347496
Critical_ROB_Stalls_Percent_0_Bucket_1: 66256
Non-critical_ROB_Stalls_Percent_0_Bucket_1: 37039
Critical_ROB_Stalls_Percent_0_Bucket_2: 29951
Non-critical_ROB_Stalls_Percent_0_Bucket_2: 6747
Critical_ROB_Stalls_Percent_0_Bucket_3: 5465
Non-critical_ROB_Stalls_Percent_0_Bucket_3: 1706
Critical_ROB_Stalls_Percent_0_Bucket_4: 1193
Non-critical_ROB_Stalls_Percent_0_Bucket_4: 612
Critical_ROB_Stalls_Percent_0_Bucket_5: 232
Non-critical_ROB_Stalls_Percent_0_Bucket_5: 339
Critical_ROB_Stalls_Percent_0_Bucket_6: 70
Non-critical_ROB_Stalls_Percent_0_Bucket_6: 416
Critical_ROB_Stalls_Percent_1_Bucket_0: 241598
Non-critical_ROB_Stalls_Percent_1_Bucket_0: 320836
Critical_ROB_Stalls_Percent_1_Bucket_1: 69811
Non-critical_ROB_Stalls_Percent_1_Bucket_1: 33484
Critical_ROB_Stalls_Percent_1_Bucket_2: 30915
Non-critical_ROB_Stalls_Percent_1_Bucket_2: 5783
Critical_ROB_Stalls_Percent_1_Bucket_3: 5637
Non-critical_ROB_Stalls_Percent_1_Bucket_3: 1534
Critical_ROB_Stalls_Percent_1_Bucket_4: 1224
Non-critical_ROB_Stalls_Percent_1_Bucket_4: 581
Critical_ROB_Stalls_Percent_1_Bucket_5: 250
Non-critical_ROB_Stalls_Percent_1_Bucket_5: 321
Critical_ROB_Stalls_Percent_1_Bucket_6: 85
Non-critical_ROB_Stalls_Percent_1_Bucket_6: 401
Critical_ROB_Stalls_Percent_2_Bucket_0: 270243
Non-critical_ROB_Stalls_Percent_2_Bucket_0: 292191
Critical_ROB_Stalls_Percent_2_Bucket_1: 72858
Non-critical_ROB_Stalls_Percent_2_Bucket_1: 30437
Critical_ROB_Stalls_Percent_2_Bucket_2: 31302
Non-critical_ROB_Stalls_Percent_2_Bucket_2: 5396
Critical_ROB_Stalls_Percent_2_Bucket_3: 5649
Non-critical_ROB_Stalls_Percent_2_Bucket_3: 1522
Critical_ROB_Stalls_Percent_2_Bucket_4: 1227
Non-critical_ROB_Stalls_Percent_2_Bucket_4: 578
Critical_ROB_Stalls_Percent_2_Bucket_5: 250
Non-critical_ROB_Stalls_Percent_2_Bucket_5: 321
Critical_ROB_Stalls_Percent_2_Bucket_6: 86
Non-critical_ROB_Stalls_Percent_2_Bucket_6: 400
Critical_ROB_Stalls_Percent_3_Bucket_0: 298536
Non-critical_ROB_Stalls_Percent_3_Bucket_0: 263898
Critical_ROB_Stalls_Percent_3_Bucket_1: 75732
Non-critical_ROB_Stalls_Percent_3_Bucket_1: 27563
Critical_ROB_Stalls_Percent_3_Bucket_2: 31734
Non-critical_ROB_Stalls_Percent_3_Bucket_2: 4964
Critical_ROB_Stalls_Percent_3_Bucket_3: 5667
Non-critical_ROB_Stalls_Percent_3_Bucket_3: 1504
Critical_ROB_Stalls_Percent_3_Bucket_4: 1236
Non-critical_ROB_Stalls_Percent_3_Bucket_4: 569
Critical_ROB_Stalls_Percent_3_Bucket_5: 258
Non-critical_ROB_Stalls_Percent_3_Bucket_5: 313
Critical_ROB_Stalls_Percent_3_Bucket_6: 88
Non-critical_ROB_Stalls_Percent_3_Bucket_6: 398
Critical_ROB_Stalls_Percent_4_Bucket_0: 328158
Non-critical_ROB_Stalls_Percent_4_Bucket_0: 234276
Critical_ROB_Stalls_Percent_4_Bucket_1: 77072
Non-critical_ROB_Stalls_Percent_4_Bucket_1: 26223
Critical_ROB_Stalls_Percent_4_Bucket_2: 31992
Non-critical_ROB_Stalls_Percent_4_Bucket_2: 4706
Critical_ROB_Stalls_Percent_4_Bucket_3: 5815
Non-critical_ROB_Stalls_Percent_4_Bucket_3: 1356
Critical_ROB_Stalls_Percent_4_Bucket_4: 1244
Non-critical_ROB_Stalls_Percent_4_Bucket_4: 561
Critical_ROB_Stalls_Percent_4_Bucket_5: 267
Non-critical_ROB_Stalls_Percent_4_Bucket_5: 304
Critical_ROB_Stalls_Percent_4_Bucket_6: 338
Non-critical_ROB_Stalls_Percent_4_Bucket_6: 148
Critical_ROB_Stalls_Percent_5_Bucket_0: 357584
Non-critical_ROB_Stalls_Percent_5_Bucket_0: 204850
Critical_ROB_Stalls_Percent_5_Bucket_1: 78903
Non-critical_ROB_Stalls_Percent_5_Bucket_1: 24392
Critical_ROB_Stalls_Percent_5_Bucket_2: 32246
Non-critical_ROB_Stalls_Percent_5_Bucket_2: 4452
Critical_ROB_Stalls_Percent_5_Bucket_3: 6080
Non-critical_ROB_Stalls_Percent_5_Bucket_3: 1091
Critical_ROB_Stalls_Percent_5_Bucket_4: 1248
Non-critical_ROB_Stalls_Percent_5_Bucket_4: 557
Critical_ROB_Stalls_Percent_5_Bucket_5: 267
Non-critical_ROB_Stalls_Percent_5_Bucket_5: 304
Critical_ROB_Stalls_Percent_5_Bucket_6: 342
Non-critical_ROB_Stalls_Percent_5_Bucket_6: 144
Critical_ROB_Stalls_Percent_6_Bucket_0: 386952
Non-critical_ROB_Stalls_Percent_6_Bucket_0: 175482
Critical_ROB_Stalls_Percent_6_Bucket_1: 80867
Non-critical_ROB_Stalls_Percent_6_Bucket_1: 22428
Critical_ROB_Stalls_Percent_6_Bucket_2: 32538
Non-critical_ROB_Stalls_Percent_6_Bucket_2: 4160
Critical_ROB_Stalls_Percent_6_Bucket_3: 6208
Non-critical_ROB_Stalls_Percent_6_Bucket_3: 963
Critical_ROB_Stalls_Percent_6_Bucket_4: 1372
Non-critical_ROB_Stalls_Percent_6_Bucket_4: 433
Critical_ROB_Stalls_Percent_6_Bucket_5: 271
Non-critical_ROB_Stalls_Percent_6_Bucket_5: 300
Critical_ROB_Stalls_Percent_6_Bucket_6: 344
Non-critical_ROB_Stalls_Percent_6_Bucket_6: 142
Critical_ROB_Stalls_Percent_7_Bucket_0: 414253
Non-critical_ROB_Stalls_Percent_7_Bucket_0: 148181
Critical_ROB_Stalls_Percent_7_Bucket_1: 84313
Non-critical_ROB_Stalls_Percent_7_Bucket_1: 18982
Critical_ROB_Stalls_Percent_7_Bucket_2: 32994
Non-critical_ROB_Stalls_Percent_7_Bucket_2: 3704
Critical_ROB_Stalls_Percent_7_Bucket_3: 6356
Non-critical_ROB_Stalls_Percent_7_Bucket_3: 815
Critical_ROB_Stalls_Percent_7_Bucket_4: 1482
Non-critical_ROB_Stalls_Percent_7_Bucket_4: 323
Critical_ROB_Stalls_Percent_7_Bucket_5: 430
Non-critical_ROB_Stalls_Percent_7_Bucket_5: 141
Critical_ROB_Stalls_Percent_7_Bucket_6: 386
Non-critical_ROB_Stalls_Percent_7_Bucket_6: 100
Critical_ROB_Stalls_Percent_8_Bucket_0: 442245
Non-critical_ROB_Stalls_Percent_8_Bucket_0: 120189
Critical_ROB_Stalls_Percent_8_Bucket_1: 87385
Non-critical_ROB_Stalls_Percent_8_Bucket_1: 15910
Critical_ROB_Stalls_Percent_8_Bucket_2: 33589
Non-critical_ROB_Stalls_Percent_8_Bucket_2: 3109
Critical_ROB_Stalls_Percent_8_Bucket_3: 6401
Non-critical_ROB_Stalls_Percent_8_Bucket_3: 770
Critical_ROB_Stalls_Percent_8_Bucket_4: 1501
Non-critical_ROB_Stalls_Percent_8_Bucket_4: 304
Critical_ROB_Stalls_Percent_8_Bucket_5: 437
Non-critical_ROB_Stalls_Percent_8_Bucket_5: 134
Critical_ROB_Stalls_Percent_8_Bucket_6: 411
Non-critical_ROB_Stalls_Percent_8_Bucket_6: 75
Average ROB occupancy Load Stall Begin: 31.4844
Average ROB occupancy Load Stall End: 36.0261
Min ROB occupancy Load Stall Begin: 1
Max ROB occupancy Load Stall Begin: 351
Min ROB occupancy Load Stall End: 1
Max ROB occupancy Load Stall End: 352
Average ROB occupancy Critical Load Stall Begin: 79.3514
Average ROB occupancy Critical Load Stall End: 89.6602
Min ROB occupancy Critical Load Stall Begin: 5
Max ROB occupancy Critical Load Stall Begin: 351
Min ROB occupancy Critical Load Stall End: 5
Max ROB occupancy Critical Load Stall End: 352
 ROB Load Stall Begin Bucket Count 0: 583104
 ROB Load Stall End Bucket Count 0: 562434
 ROB Critical Load Stall Begin Bucket Count 0: 983
 ROB Critical Load Stall End Bucket Count 0: 955
 ROB Load Stall Begin Bucket Count 1: 91250
 ROB Load Stall End Bucket Count 1: 103295
 ROB Critical Load Stall Begin Bucket Count 1: 16097
 ROB Critical Load Stall End Bucket Count 1: 16023
 ROB Load Stall Begin Bucket Count 2: 29965
 ROB Load Stall End Bucket Count 2: 36698
 ROB Critical Load Stall Begin Bucket Count 2: 670
 ROB Critical Load Stall End Bucket Count 2: 769
 ROB Load Stall Begin Bucket Count 3: 5756
 ROB Load Stall End Bucket Count 3: 7171
 ROB Critical Load Stall Begin Bucket Count 3: 6
 ROB Critical Load Stall End Bucket Count 3: 5
 ROB Load Stall Begin Bucket Count 4: 1462
 ROB Load Stall End Bucket Count 4: 1805
 ROB Critical Load Stall Begin Bucket Count 4: 3
 ROB Critical Load Stall End Bucket Count 4: 2
 ROB Load Stall Begin Bucket Count 5: 490
 ROB Load Stall End Bucket Count 5: 571
 ROB Critical Load Stall Begin Bucket Count 5: 2
 ROB Critical Load Stall End Bucket Count 5: 2
 ROB Load Stall Begin Bucket Count 6: 433
 ROB Load Stall End Bucket Count 6: 486
 ROB Critical Load Stall Begin Bucket Count 6: 204
 ROB Critical Load Stall End Bucket Count 6: 209
PIST Tag Read Accesses: 199648
PIST Read Accesses: 99824
PIST Tag Write Accesses: 199648
PIST Write Accesses: 99824
Criticality detector called times: 322880
Max global_stall_cycles_count: 202041
Threshold Modified: 1 times, factor: -1
ITLB TOTAL     ACCESS:   10327271  HIT:    9805254  MISS:     522017  HIT %:    94.9453  MISS %:    5.05474   MPKI: 10.4403
ITLB LOAD TRANSLATION ACCESS:    8797820  HIT:    8719998  MISS:      77822  HIT %:    99.1154  MISS %:    0.88456   MPKI: 1.55644
ITLB TRANSLATION FROM L1D PREFETCHER ACCESS:    1529451  HIT:    1085256  MISS:     444195  HIT %:    70.9572  MISS %:    29.0428   MPKI: 8.8839
ITLB PREFETCH  REQUESTED:          0  ISSUED:          0  USEFUL:     343698  USELESS:     100495
ITLB USEFUL LOAD PREFETCHES:     343698 PREFETCH ISSUED TO LOWER LEVEL:          0  ACCURACY: inf
ITLB TIMELY PREFETCHES:     343698 LATE PREFETCHES: 191 DROPPED PREFETCHES: 2937
ITLB PREFETCHES SAME FILL-ORIGIN LEVEL: 0 DIFFERENT FILL-ORIGIN LEVEL: 0
ITLB AVERAGE MISS LATENCY: 20668 cycles
ITLB RQ	ACCESS:   14250516	FORWARD:          0	MERGED:    3888156	TO_CACHE:   10362360

DTLB TOTAL     ACCESS:   10186241  HIT:    9802654  MISS:     383587  HIT %:    96.2343  MISS %:    3.76574   MPKI: 7.67174
DTLB LOAD TRANSLATION ACCESS:   10186241  HIT:    9802654  MISS:     383587  HIT %:    96.2343  MISS %:    3.76574   MPKI: 7.67174
DTLB PREFETCH  REQUESTED:          0  ISSUED:          0  USEFUL:          0  USELESS:          0
DTLB USEFUL LOAD PREFETCHES:          0 PREFETCH ISSUED TO LOWER LEVEL:          0  ACCURACY: -nan
DTLB TIMELY PREFETCHES:          0 LATE PREFETCHES: 0 DROPPED PREFETCHES: 0
DTLB PREFETCHES SAME FILL-ORIGIN LEVEL: 0 DIFFERENT FILL-ORIGIN LEVEL: 0
DTLB AVERAGE MISS LATENCY: 9.38928 cycles
DTLB RQ	ACCESS:   13093610	FORWARD:          0	MERGED:    2885450	TO_CACHE:   10208160

STLB TOTAL     ACCESS:    1793619  HIT:    1791584  MISS:       2035  HIT %:    99.8865  MISS %:   0.113458   MPKI: 0.0407
STLB LOAD TRANSLATION ACCESS:     461218  HIT:     459333  MISS:       1885  HIT %:    99.5913  MISS %:     0.4087   MPKI: 0.0377
STLB TRANSLATION FROM L1D PREFETCHER ACCESS:    1332401  HIT:    1332251  MISS:        150  HIT %:    99.9887  MISS %:  0.0112579   MPKI: 0.003
STLB PREFETCH  REQUESTED:          0  ISSUED:          0  USEFUL:        136  USELESS:         14
STLB USEFUL LOAD PREFETCHES:        136 PREFETCH ISSUED TO LOWER LEVEL:          0  ACCURACY: inf
STLB TIMELY PREFETCHES:        136 LATE PREFETCHES: 0 DROPPED PREFETCHES: 2937
STLB PREFETCHES SAME FILL-ORIGIN LEVEL: 0 DIFFERENT FILL-ORIGIN LEVEL: 0
STLB AVERAGE MISS LATENCY: 77.7936 cycles
STLB RQ	ACCESS:    2544486	FORWARD:          0	MERGED:     747930	TO_CACHE:    1796556

STLB Hit, L1D data hit: 0
STLB Hit, L2C data hit: 0
STLB Hit, LLC data hit: 0
STLB Hit, LLC data miss: 0
STLB STLB hints to L2: 0
L1D TOTAL     ACCESS:   14268978  HIT:   13360636  MISS:     908342  HIT %:    93.6341  MISS %:    6.36585   MPKI: 18.1668
L1D LOAD      ACCESS:    7421270  HIT:    6850798  MISS:     570472  HIT %:     92.313  MISS %:    7.68699   MPKI: 11.4094
L1D RFO       ACCESS:    5268207  HIT:    5039096  MISS:     229111  HIT %:    95.6511  MISS %:    4.34894   MPKI: 4.58222
L1D PREFETCH  ACCESS:    1579501  HIT:    1470742  MISS:     108759  HIT %:    93.1143  MISS %:    6.88566   MPKI: 2.17518
L1D PREFETCH  REQUESTED:    3272017  ISSUED:    3272016  USEFUL:      48600  USELESS:      60261
L1D USEFUL LOAD PREFETCHES:      48600 PREFETCH ISSUED TO LOWER LEVEL:     152971  ACCURACY: 31.7707
L1D TIMELY PREFETCHES:      48600 LATE PREFETCHES: 44065 DROPPED PREFETCHES: 0
L1D PREFETCHES SAME FILL-ORIGIN LEVEL: 152971 DIFFERENT FILL-ORIGIN LEVEL: 0
L1D AVERAGE MISS LATENCY: 2.88289e+06 cycles
L1D RQ	ACCESS:   10331965	FORWARD:          0	MERGED:    2774055	TO_CACHE:    7451130
L1D WQ	ACCESS:    5697707	FORWARD:     106906	MERGED:      55227	TO_CACHE:    5642480
L1D PQ	ACCESS:    1636071	FORWARD:          0	MERGED:          0	TO_CACHE:    1635945

L1D UNIQUE REGIONS ACCESSED: 0
L1D REGIONS CONFLICTS: 0
L1D Cross Page Prefetch Requests: 0
L1D Same Page Prefetch Requests: 4359433
L1D ROI Sum of L1D PQ occupancy: 21127102
L1D PREFETCHES PUSHED FROM L2C: 0
L1I TOTAL     ACCESS:   14123901  HIT:   10992081  MISS:    3131820  HIT %:    77.8261  MISS %:    22.1739   MPKI: 62.6364
L1I LOAD      ACCESS:    9936874  HIT:    9702864  MISS:     234010  HIT %:     97.645  MISS %:    2.35497   MPKI: 4.6802
L1I PREFETCH  ACCESS:    4187027  HIT:    1289217  MISS:    2897810  HIT %:    30.7907  MISS %:    69.2093   MPKI: 57.9562
L1I PREFETCH  REQUESTED:    4394784  ISSUED:    4383823  USEFUL:    1947684  USELESS:     950060
L1I USEFUL LOAD PREFETCHES:    1947684 PREFETCH ISSUED TO LOWER LEVEL:    2923672  ACCURACY: 66.6177
L1I TIMELY PREFETCHES:    1947684 LATE PREFETCHES: 25862 DROPPED PREFETCHES: 7108
L1I PREFETCHES SAME FILL-ORIGIN LEVEL: 2923672 DIFFERENT FILL-ORIGIN LEVEL: 0
L1I AVERAGE MISS LATENCY: 488632 cycles
L1I RQ	ACCESS:   13362483	FORWARD:          0	MERGED:    3405274	TO_CACHE:    9957209
L1I PQ	ACCESS:    4383823	FORWARD:          0	MERGED:      90516	TO_CACHE:    4293307

BTB TOTAL     ACCESS:    6534034  HIT:    5095597  MISS:    1438437  HIT %:    77.9855  MISS %:    22.0145   MPKI: 28.7687
BTB BRANCH_DIRECT_JUMP	ACCESS:     487044  HIT:     364834  MISS:     122210
BTB BRANCH_INDIRECT	ACCESS:     169158  HIT:     142414  MISS:      26744
BTB BRANCH_CONDITIONAL	ACCESS:    4098719  HIT:    3717570  MISS:     381149
BTB BRANCH_DIRECT_CALL	ACCESS:     755585  HIT:     471450  MISS:     284135
BTB BRANCH_INDIRECT_CALL	ACCESS:     133962  HIT:      76124  MISS:      57838
BTB BRANCH_RETURN	ACCESS:     889566  HIT:     323205  MISS:     566361
BTB BRANCH_OTHER ACCESS:          0  HIT:          0  MISS:          0

L2C TOTAL     ACCESS:    4445104  HIT:    3968746  MISS:     476358  HIT %:    89.2835  MISS %:    10.7165   MPKI: 9.52716
L2C LOAD      ACCESS:     734504  HIT:     611667  MISS:     122837  HIT %:    83.2762  MISS %:    16.7238   MPKI: 2.45674
L2C DATA LOAD MPKI: 1.84464
L2C INSTRUCTION LOAD MPKI: 0.6121
L2C RFO       ACCESS:     228953  HIT:     177378  MISS:      51575  HIT %:    77.4735  MISS %:    22.5265   MPKI: 1.0315
L2C PREFETCH  ACCESS:    3076643  HIT:    2794200  MISS:     282443  HIT %:    90.8198  MISS %:    9.18023   MPKI: 5.64886
L2C DATA PREFETCH MPKI: 1.12272
L2C INSTRUCTION PREFETCH MPKI: 4.52614
L2C WRITEBACK ACCESS:     397891  HIT:     380208  MISS:      17683  HIT %:    95.5558  MISS %:    4.44418   MPKI: 0.35366
L2C LOAD TRANSLATION ACCESS:       2113  HIT:        563  MISS:       1550  HIT %:    26.6446  MISS %:    73.3554   MPKI: 0.031
L2C TRANSLATION FROM L1D PREFETCHER ACCESS:       5000  HIT:       4730  MISS:        270  HIT %:       94.6  MISS %:        5.4   MPKI: 0.0054
L2C PREFETCH  REQUESTED:          0  ISSUED:          0  USEFUL:       8560  USELESS:     273808
L2C USEFUL LOAD PREFETCHES:       8560 PREFETCH ISSUED TO LOWER LEVEL:     282443  ACCURACY: 3.0307
L2C TIMELY PREFETCHES:       8560 LATE PREFETCHES: 0 DROPPED PREFETCHES: 0
L2C PREFETCHES SAME FILL-ORIGIN LEVEL: 0 DIFFERENT FILL-ORIGIN LEVEL: 0
L2C AVERAGE MISS LATENCY: 39.0431 cycles
L2C RQ	ACCESS:     970632	FORWARD:          0	MERGED:          0	TO_CACHE:     970570
L2C WQ	ACCESS:     397891	FORWARD:         62	MERGED:          0	TO_CACHE:     397891
L2C PQ	ACCESS:    3076643	FORWARD:          0	MERGED:          0	TO_CACHE:    3076643

L2C Instructions Evicting Data 109797
L2C Translations Evicting Data 1220
L2C Data Evicting Data 100629
L2C Instructions Evicting Instructions 146458
L2C Translations Evicting Instructions 592
L2C Data Evicting Instructions 98147
L2C Instructions Evicting Translations 657
L2C Translations Evicting Translations 8
L2C Data Evicting Translations 1167
L2C Dense regions hint from L2: 0
PSCL5 TOTAL     ACCESS:       4972  HIT:       4972  MISS:          0  HIT %:        100  MISS %:          0   MPKI: 0
PSCL5 LOAD TRANSLATION ACCESS:       1885  HIT:       1885  MISS:          0  HIT %:        100  MISS %:          0   MPKI: 0
PSCL5 TRANSLATION FROM L1D PREFETCHER ACCESS:       3087  HIT:       3087  MISS:          0  HIT %:        100  MISS %:          0   MPKI: 0
PSCL5 PREFETCH  REQUESTED:          0  ISSUED:          0  USEFUL:          0  USELESS:          0
PSCL5 USEFUL LOAD PREFETCHES:          0 PREFETCH ISSUED TO LOWER LEVEL:          0  ACCURACY: -nan
PSCL5 TIMELY PREFETCHES:          0 LATE PREFETCHES: 0 DROPPED PREFETCHES: 0
PSCL5 PREFETCHES SAME FILL-ORIGIN LEVEL: 0 DIFFERENT FILL-ORIGIN LEVEL: 0

PSCL4 TOTAL     ACCESS:       4679  HIT:       4665  MISS:         14  HIT %:    99.7008  MISS %:   0.299209   MPKI: 0.00028
PSCL4 LOAD TRANSLATION ACCESS:       1666  HIT:       1652  MISS:         14  HIT %:    99.1597  MISS %:   0.840336   MPKI: 0.00028
PSCL4 TRANSLATION FROM L1D PREFETCHER ACCESS:       3013  HIT:       3013  MISS:          0  HIT %:        100  MISS %:          0   MPKI: 0
PSCL4 PREFETCH  REQUESTED:          0  ISSUED:          0  USEFUL:          0  USELESS:          0
PSCL4 USEFUL LOAD PREFETCHES:          0 PREFETCH ISSUED TO LOWER LEVEL:          0  ACCURACY: -nan
PSCL4 TIMELY PREFETCHES:          0 LATE PREFETCHES: 0 DROPPED PREFETCHES: 0
PSCL4 PREFETCHES SAME FILL-ORIGIN LEVEL: 0 DIFFERENT FILL-ORIGIN LEVEL: 0

PSCL3 TOTAL     ACCESS:       4855  HIT:       4841  MISS:         14  HIT %:    99.7116  MISS %:   0.288363   MPKI: 0.00028
PSCL3 LOAD TRANSLATION ACCESS:       1842  HIT:       1828  MISS:         14  HIT %:      99.24  MISS %:   0.760043   MPKI: 0.00028
PSCL3 TRANSLATION FROM L1D PREFETCHER ACCESS:       3013  HIT:       3013  MISS:          0  HIT %:        100  MISS %:          0   MPKI: 0
PSCL3 PREFETCH  REQUESTED:          0  ISSUED:          0  USEFUL:          0  USELESS:          0
PSCL3 USEFUL LOAD PREFETCHES:          0 PREFETCH ISSUED TO LOWER LEVEL:          0  ACCURACY: -nan
PSCL3 TIMELY PREFETCHES:          0 LATE PREFETCHES: 0 DROPPED PREFETCHES: 0
PSCL3 PREFETCHES SAME FILL-ORIGIN LEVEL: 0 DIFFERENT FILL-ORIGIN LEVEL: 0

PSCL2 TOTAL     ACCESS:       3168  HIT:       2937  MISS:        231  HIT %:    92.7083  MISS %:    7.29167   MPKI: 0.00462
PSCL2 LOAD TRANSLATION ACCESS:       1912  HIT:       1681  MISS:        231  HIT %:    87.9184  MISS %:    12.0816   MPKI: 0.00462
PSCL2 TRANSLATION FROM L1D PREFETCHER ACCESS:       1256  HIT:       1256  MISS:          0  HIT %:        100  MISS %:          0   MPKI: 0
PSCL2 PREFETCH  REQUESTED:          0  ISSUED:          0  USEFUL:          0  USELESS:          0
PSCL2 USEFUL LOAD PREFETCHES:          0 PREFETCH ISSUED TO LOWER LEVEL:          0  ACCURACY: -nan
PSCL2 TIMELY PREFETCHES:          0 LATE PREFETCHES: 0 DROPPED PREFETCHES: 0
PSCL2 PREFETCHES SAME FILL-ORIGIN LEVEL: 0 DIFFERENT FILL-ORIGIN LEVEL: 0

LLC TOTAL     ACCESS:     535457  HIT:     504737  MISS:      30720  HIT %:    94.2628  MISS %:    5.73716   MPKI: 0.6144
LLC LOAD      ACCESS:     122836  HIT:     116754  MISS:       6082  HIT %:    95.0487  MISS %:    4.95132   MPKI: 0.12164
LLC RFO       ACCESS:      51575  HIT:      37402  MISS:      14173  HIT %:    72.5196  MISS %:    27.4804   MPKI: 0.28346
LLC PREFETCH  ACCESS:     282443  HIT:     272469  MISS:       9974  HIT %:    96.4687  MISS %:    3.53133   MPKI: 0.19948
LLC WRITEBACK ACCESS:      76783  HIT:      76443  MISS:        340  HIT %:    99.5572  MISS %:   0.442806   MPKI: 0.0068
LLC LOAD TRANSLATION ACCESS:       1550  HIT:       1417  MISS:        133  HIT %:    91.4194  MISS %:    8.58065   MPKI: 0.00266
LLC TRANSLATION FROM L1D PREFETCHER ACCESS:        270  HIT:        252  MISS:         18  HIT %:    93.3333  MISS %:    6.66667   MPKI: 0.00036
LLC PREFETCH  REQUESTED:          0  ISSUED:          0  USEFUL:        965  USELESS:      10153
LLC USEFUL LOAD PREFETCHES:        965 PREFETCH ISSUED TO LOWER LEVEL:       9974  ACCURACY: 9.67516
LLC TIMELY PREFETCHES:        965 LATE PREFETCHES: 0 DROPPED PREFETCHES: 0
LLC PREFETCHES SAME FILL-ORIGIN LEVEL: 0 DIFFERENT FILL-ORIGIN LEVEL: 0
LLC AVERAGE MISS LATENCY: 156.392 cycles
LLC RQ	ACCESS:     176232	FORWARD:          0	MERGED:          0	TO_CACHE:     176231
LLC WQ	ACCESS:      76783	FORWARD:          1	MERGED:          0	TO_CACHE:      76783
LLC PQ	ACCESS:     282443	FORWARD:          0	MERGED:          0	TO_CACHE:     282443

LLC Dense regions hint to LLC: 0

RAW hits: 800345
Loads Generated: 11132312
Loads sent to L1D: 10331965
Stores Generated: 5697707
Stores sent to L1D: 5697707
Major fault: 0 Minor fault: 2472
Allocated PAGES: 2472
I-Shadow cache 408 bytes
Touched + WorthPF tables 6144 bytes 
MMA filter 174 bytes 
FNL filter 272 bytes 
TOTAL PREFETCHER STORAGE SIZE: 25174 bytes
CPU 0 L1I next line prefetcher final stats

stream: 
stream:times selected: 3058417
stream:pref_filled: 98234
stream:pref_useful: 26227
stream:pref_late: 40724
stream:misses: 8599
stream:misses_by_poll: 0

CS: 
CS:times selected: 2085606
CS:pref_filled: 80822
CS:pref_useful: 60466
CS:pref_late: 4403
CS:misses: 10350
CS:misses_by_poll: 6

CPLX: 
CPLX:times selected: 971392
CPLX:pref_filled: 29921
CPLX:pref_useful: 15143
CPLX:pref_late: 2765
CPLX:misses: 100213
CPLX:misses_by_poll: 1

NL_L1: 
NL:times selected: 6519
NL:pref_filled: 353
NL:pref_useful: 71
NL:pref_late: 15
NL:misses: 377
NL:misses_by_poll: 0

total selections: 6121934
total_filled: 108759
total_useful: 48600
total_late: 49769
total_polluted: 7
total_misses_after_warmup: 600331
conflicts: 2651753
Degree Incremented Times: 4649
Degree Decremented Times: 86192

L1 IP Table Write Accesses: 4588195
L1 IP Table Read Accesses: 1936442
L1 RST Write Accesses: 1267831
L1 RST Read Accesses: 2535662
L1 CSPT Write Accesses: 1267831
L1 CSPT Read Accesses: 1784770
L1 RR Filter Tag Write Accesses: 1636072
L1 RR Filter Tag Read Accesses: 107395554
L1 IP Table Tag Write Accesses: 7451129
L1 IP Table Tag Read Accesses: 7451129
L1 RST Tag Write Accesses: 0
L1 RST Tag Read Accesses: 10928304
L1 RR Filter Write Accesses: 0
L1 RR Filter Read Accesses: 3588101
test: 176799

DRAM Statistics
 CHANNEL 0
 RQ ROW_BUFFER_HIT:      10524  ROW_BUFFER_MISS:      19852
 DBUS_CONGESTED:         10
 WQ ROW_BUFFER_HIT:       1349  ROW_BUFFER_MISS:      13501  FULL:          0

 AVG_CONGESTED_CYCLE: 2
 All warmup complete: 2
Channel 0 Bank busy for read cycles: 0
Channel 0 Bank busy for write cycles: 0
Channel 0
Rank 0
0banks busy for read cycles: 74655380
0banks busy for write cycles: 3766
1banks busy for read cycles: 1006324
1banks busy for write cycles: 494591
2banks busy for read cycles: 307371
2banks busy for write cycles: 136524
3banks busy for read cycles: 135920
3banks busy for write cycles: 82930
4banks busy for read cycles: 87725
4banks busy for write cycles: 59829
5banks busy for read cycles: 32354
5banks busy for write cycles: 51415
6banks busy for read cycles: 30875
6banks busy for write cycles: 45884
7banks busy for read cycles: 32015
7banks busy for write cycles: 50899
8banks busy for read cycles: 71499
8banks busy for write cycles: 78763

CPU 0 Branch Prediction Accuracy: 99.7225% MPKI: 0.50376 Average ROB Occupancy at Mispredict: 58.7628
Branch types
NOT_BRANCH: 40923872 81.8477%
BRANCH_DIRECT_JUMP: 487044 0.974088%
BRANCH_INDIRECT: 169158 0.338316%
BRANCH_CONDITIONAL: 6640823 13.2816%
BRANCH_DIRECT_CALL: 755585 1.51117%
BRANCH_INDIRECT_CALL: 133962 0.267924%
BRANCH_RETURN: 889566 1.77913%
BRANCH_OTHER: 0 0%

DRAM PAGES: 1048576
Allocated PAGES: 2472
