Initialize SIGNATURE TABLE
ST_SET: 1
ST_WAY: 256
ST_TAG_BIT: 16
ST_TAG_MASK: ffff

Initialize PATTERN TABLE
PT_SET: 512
PT_WAY: 4
SIG_DELTA_BIT: 7
C_SIG_BIT: 4
C_DELTA_BIT: 4

Initialize PREFETCH FILTER
FILTER_SET: 1024

*** ChampSim Multicore Out-of-Order Simulator ***

Warmup Instructions: 50000000
Simulation Instructions: 50000000
Number of CPUs: 1
LLC sets: 2048
LLC ways: 16
Off-chip DRAM Size: 4096 MB Channels: 1 Width: 64-bit Data Rate: 6400 MT/s
CPU 0 runs ../IPC-traces//server_023.champsimtrace.xz
.xz
BTB has LRU replacement policy
ITLB has LRU replacement policy
DTLB has LRU replacement policy
STLB has LRU replacement policy
CPU 0 L1I next line prefetcher
L1I has LRU replacement policy
L1D has LRU replacement policy
Initialize SRRIP state for L2C
Initialize DRRIP state for LLC
Heartbeat CPU 0 instructions: 10000001 cycles: 2874119 heartbeat IPC: 3.47933 cumulative IPC: 3.47933 (Simulation time: 0 hr 5 min 29 sec) 
Heartbeat CPU 0 instructions: 20000000 cycles: 5745441 heartbeat IPC: 3.48272 cumulative IPC: 3.48102 (Simulation time: 0 hr 9 min 3 sec) 
Heartbeat CPU 0 instructions: 30000002 cycles: 8613210 heartbeat IPC: 3.48703 cumulative IPC: 3.48302 (Simulation time: 0 hr 12 min 20 sec) 
Heartbeat CPU 0 instructions: 40000002 cycles: 11483896 heartbeat IPC: 3.48349 cumulative IPC: 3.48314 (Simulation time: 0 hr 16 min 3 sec) 
Heartbeat CPU 0 instructions: 50000001 cycles: 14356873 heartbeat IPC: 3.48071 cumulative IPC: 3.48265 (Simulation time: 0 hr 19 min 13 sec) 

Warmup complete CPU 0 instructions: 50000001 cycles: 14356873 (Simulation time: 0 hr 19 min 13 sec) 

Heartbeat CPU 0 instructions: 60000000 cycles: 30292482 heartbeat IPC: 0.627525 cumulative IPC: 0.627525 (Simulation time: 0 hr 22 min 35 sec) 
Heartbeat CPU 0 instructions: 70000000 cycles: 46425394 heartbeat IPC: 0.619851 cumulative IPC: 0.623664 (Simulation time: 0 hr 25 min 59 sec) 
Heartbeat CPU 0 instructions: 80000000 cycles: 62282230 heartbeat IPC: 0.630643 cumulative IPC: 0.625973 (Simulation time: 0 hr 29 min 12 sec) 
Heartbeat CPU 0 instructions: 90000000 cycles: 77697725 heartbeat IPC: 0.648698 cumulative IPC: 0.631504 (Simulation time: 0 hr 32 min 17 sec) 
Heartbeat CPU 0 instructions: 100000001 cycles: 93588418 heartbeat IPC: 0.629299 cumulative IPC: 0.631062 (Simulation time: 0 hr 35 min 4 sec) 
Finished CPU 0 instructions: 50000000 cycles: 79231545 cumulative IPC: 0.631062 (Simulation time: 0 hr 35 min 4 sec) 

ChampSim completed all CPUs

Region of Interest Statistics

CPU 0 cumulative IPC: 0.631062 instructions: 50000000 cycles: 79231545

CPU 0 Average Load ROB stall cycles: 1.9982e+07
CPU 0 Fraction of times ROB stalled by Loads: 36.9441
CPU 0 Percentage of Load stall cycles in Total stall cycles: 2.79853e+08
Issued all: 27991823
Issued LT all: 22078079
rob_not_full_when_issued_lt_all: 21597960
Issued LT one: 17244587
rob_not_full_when_issued_lt_one: 16820294
 Total stall cycles: 65872365
 Total load stall cycles: 184345606853567
Unique Load IPs: 16358
CPU 0 NUM of IPS identified critical: 26
CPU 0 Num of Load IPs stalling ROB: 0
Threshold modification factor: 0
Trouble in retire width: -nan
MaC = Marked as critical.
lt_50_percent_before_Mac: 4
gt_90_percent_before_Mac: 3
gt_75_percent_before_Mac: 7
gt_50_percent_before_Mac: 7
stall_proportion_bin_same_before_after: 0
stall_proportion_bin_lower_before_after: 0
stall_proportion_bin_upper_before_after: 0
average_stall_proportion_before: 0.0467687
average_stall_proportion_after: 0.0544182
Critical_IP_Detector_Accuracy_70: 0
Critical_IP_Detector_Accuracy_80: 0
Critical_IP_Detector_Accuracy_90: 0
Critical_IP_Detector_Coverage_70: 0
Critical_IP_Detector_Coverage_80: 0
Critical_IP_Detector_Coverage_90: 0
stat_90_percent_critical_ip_stalls_freq: 121133
stat_90_percent_non_critical_ip_stalls_freq: 18446744073709430483
AVERAGE_ROB_Occupancy_90_Percent_Critical_IP_Stalls: 17.6585
AVERAGE_ROB_Occupancy_90_Percent_Non_Critical_IP_Stalls: 8.5096e-12
Critical_IP_ROB_Stalls_Bucket_0: 18498
Non-critical_IP_ROB_Stalls_Bucket_0: 2339707
Critical_IP_ROB_Stalls_Bucket_1: 1207
Non-critical_IP_ROB_Stalls_Bucket_1: 694676
Critical_IP_ROB_Stalls_Bucket_2: 204
Non-critical_IP_ROB_Stalls_Bucket_2: 243166
Critical_IP_ROB_Stalls_Bucket_3: 107
Non-critical_IP_ROB_Stalls_Bucket_3: 58717
Critical_IP_ROB_Stalls_Bucket_4: 32
Non-critical_IP_ROB_Stalls_Bucket_4: 20324
Critical_IP_ROB_Stalls_Bucket_5: 5
Non-critical_IP_ROB_Stalls_Bucket_5: 9555
Critical_IP_ROB_Stalls_Bucket_6: 4
Non-critical_IP_ROB_Stalls_Bucket_6: 22114
0 => IPs accounting for >50 percent of stalls, 1 => 55, 2 => 60, 3 => 65 and so on till 90.
percent50: inf num IPs:  1
percent55: inf num IPs: 1
percent60: inf num IPs: 1
percent65: inf num IPs: 1
percent70: inf num IPs: 1
percent75: inf num IPs: 1
percent80: inf num IPs: 1
percent85: inf num IPs: 1
percent90: inf num IPs: 1
Critical_ROB_Stalls_Percent_0_Bucket_0: 120558
Non-critical_ROB_Stalls_Percent_0_Bucket_0: 2237647
Critical_ROB_Stalls_Percent_0_Bucket_1: 477
Non-critical_ROB_Stalls_Percent_0_Bucket_1: 695406
Critical_ROB_Stalls_Percent_0_Bucket_2: 65
Non-critical_ROB_Stalls_Percent_0_Bucket_2: 243305
Critical_ROB_Stalls_Percent_0_Bucket_3: 2
Non-critical_ROB_Stalls_Percent_0_Bucket_3: 58822
Critical_ROB_Stalls_Percent_0_Bucket_4: 4
Non-critical_ROB_Stalls_Percent_0_Bucket_4: 20352
Critical_ROB_Stalls_Percent_0_Bucket_5: 2
Non-critical_ROB_Stalls_Percent_0_Bucket_5: 9558
Critical_ROB_Stalls_Percent_0_Bucket_6: 25
Non-critical_ROB_Stalls_Percent_0_Bucket_6: 22093
Critical_ROB_Stalls_Percent_1_Bucket_0: 120558
Non-critical_ROB_Stalls_Percent_1_Bucket_0: 2237647
Critical_ROB_Stalls_Percent_1_Bucket_1: 477
Non-critical_ROB_Stalls_Percent_1_Bucket_1: 695406
Critical_ROB_Stalls_Percent_1_Bucket_2: 65
Non-critical_ROB_Stalls_Percent_1_Bucket_2: 243305
Critical_ROB_Stalls_Percent_1_Bucket_3: 2
Non-critical_ROB_Stalls_Percent_1_Bucket_3: 58822
Critical_ROB_Stalls_Percent_1_Bucket_4: 4
Non-critical_ROB_Stalls_Percent_1_Bucket_4: 20352
Critical_ROB_Stalls_Percent_1_Bucket_5: 2
Non-critical_ROB_Stalls_Percent_1_Bucket_5: 9558
Critical_ROB_Stalls_Percent_1_Bucket_6: 25
Non-critical_ROB_Stalls_Percent_1_Bucket_6: 22093
Critical_ROB_Stalls_Percent_2_Bucket_0: 120558
Non-critical_ROB_Stalls_Percent_2_Bucket_0: 2237647
Critical_ROB_Stalls_Percent_2_Bucket_1: 477
Non-critical_ROB_Stalls_Percent_2_Bucket_1: 695406
Critical_ROB_Stalls_Percent_2_Bucket_2: 65
Non-critical_ROB_Stalls_Percent_2_Bucket_2: 243305
Critical_ROB_Stalls_Percent_2_Bucket_3: 2
Non-critical_ROB_Stalls_Percent_2_Bucket_3: 58822
Critical_ROB_Stalls_Percent_2_Bucket_4: 4
Non-critical_ROB_Stalls_Percent_2_Bucket_4: 20352
Critical_ROB_Stalls_Percent_2_Bucket_5: 2
Non-critical_ROB_Stalls_Percent_2_Bucket_5: 9558
Critical_ROB_Stalls_Percent_2_Bucket_6: 25
Non-critical_ROB_Stalls_Percent_2_Bucket_6: 22093
Critical_ROB_Stalls_Percent_3_Bucket_0: 120558
Non-critical_ROB_Stalls_Percent_3_Bucket_0: 2237647
Critical_ROB_Stalls_Percent_3_Bucket_1: 477
Non-critical_ROB_Stalls_Percent_3_Bucket_1: 695406
Critical_ROB_Stalls_Percent_3_Bucket_2: 65
Non-critical_ROB_Stalls_Percent_3_Bucket_2: 243305
Critical_ROB_Stalls_Percent_3_Bucket_3: 2
Non-critical_ROB_Stalls_Percent_3_Bucket_3: 58822
Critical_ROB_Stalls_Percent_3_Bucket_4: 4
Non-critical_ROB_Stalls_Percent_3_Bucket_4: 20352
Critical_ROB_Stalls_Percent_3_Bucket_5: 2
Non-critical_ROB_Stalls_Percent_3_Bucket_5: 9558
Critical_ROB_Stalls_Percent_3_Bucket_6: 25
Non-critical_ROB_Stalls_Percent_3_Bucket_6: 22093
Critical_ROB_Stalls_Percent_4_Bucket_0: 120558
Non-critical_ROB_Stalls_Percent_4_Bucket_0: 2237647
Critical_ROB_Stalls_Percent_4_Bucket_1: 477
Non-critical_ROB_Stalls_Percent_4_Bucket_1: 695406
Critical_ROB_Stalls_Percent_4_Bucket_2: 65
Non-critical_ROB_Stalls_Percent_4_Bucket_2: 243305
Critical_ROB_Stalls_Percent_4_Bucket_3: 2
Non-critical_ROB_Stalls_Percent_4_Bucket_3: 58822
Critical_ROB_Stalls_Percent_4_Bucket_4: 4
Non-critical_ROB_Stalls_Percent_4_Bucket_4: 20352
Critical_ROB_Stalls_Percent_4_Bucket_5: 2
Non-critical_ROB_Stalls_Percent_4_Bucket_5: 9558
Critical_ROB_Stalls_Percent_4_Bucket_6: 25
Non-critical_ROB_Stalls_Percent_4_Bucket_6: 22093
Critical_ROB_Stalls_Percent_5_Bucket_0: 120558
Non-critical_ROB_Stalls_Percent_5_Bucket_0: 2237647
Critical_ROB_Stalls_Percent_5_Bucket_1: 477
Non-critical_ROB_Stalls_Percent_5_Bucket_1: 695406
Critical_ROB_Stalls_Percent_5_Bucket_2: 65
Non-critical_ROB_Stalls_Percent_5_Bucket_2: 243305
Critical_ROB_Stalls_Percent_5_Bucket_3: 2
Non-critical_ROB_Stalls_Percent_5_Bucket_3: 58822
Critical_ROB_Stalls_Percent_5_Bucket_4: 4
Non-critical_ROB_Stalls_Percent_5_Bucket_4: 20352
Critical_ROB_Stalls_Percent_5_Bucket_5: 2
Non-critical_ROB_Stalls_Percent_5_Bucket_5: 9558
Critical_ROB_Stalls_Percent_5_Bucket_6: 25
Non-critical_ROB_Stalls_Percent_5_Bucket_6: 22093
Critical_ROB_Stalls_Percent_6_Bucket_0: 120558
Non-critical_ROB_Stalls_Percent_6_Bucket_0: 2237647
Critical_ROB_Stalls_Percent_6_Bucket_1: 477
Non-critical_ROB_Stalls_Percent_6_Bucket_1: 695406
Critical_ROB_Stalls_Percent_6_Bucket_2: 65
Non-critical_ROB_Stalls_Percent_6_Bucket_2: 243305
Critical_ROB_Stalls_Percent_6_Bucket_3: 2
Non-critical_ROB_Stalls_Percent_6_Bucket_3: 58822
Critical_ROB_Stalls_Percent_6_Bucket_4: 4
Non-critical_ROB_Stalls_Percent_6_Bucket_4: 20352
Critical_ROB_Stalls_Percent_6_Bucket_5: 2
Non-critical_ROB_Stalls_Percent_6_Bucket_5: 9558
Critical_ROB_Stalls_Percent_6_Bucket_6: 25
Non-critical_ROB_Stalls_Percent_6_Bucket_6: 22093
Critical_ROB_Stalls_Percent_7_Bucket_0: 120558
Non-critical_ROB_Stalls_Percent_7_Bucket_0: 2237647
Critical_ROB_Stalls_Percent_7_Bucket_1: 477
Non-critical_ROB_Stalls_Percent_7_Bucket_1: 695406
Critical_ROB_Stalls_Percent_7_Bucket_2: 65
Non-critical_ROB_Stalls_Percent_7_Bucket_2: 243305
Critical_ROB_Stalls_Percent_7_Bucket_3: 2
Non-critical_ROB_Stalls_Percent_7_Bucket_3: 58822
Critical_ROB_Stalls_Percent_7_Bucket_4: 4
Non-critical_ROB_Stalls_Percent_7_Bucket_4: 20352
Critical_ROB_Stalls_Percent_7_Bucket_5: 2
Non-critical_ROB_Stalls_Percent_7_Bucket_5: 9558
Critical_ROB_Stalls_Percent_7_Bucket_6: 25
Non-critical_ROB_Stalls_Percent_7_Bucket_6: 22093
Critical_ROB_Stalls_Percent_8_Bucket_0: 120558
Non-critical_ROB_Stalls_Percent_8_Bucket_0: 2237647
Critical_ROB_Stalls_Percent_8_Bucket_1: 477
Non-critical_ROB_Stalls_Percent_8_Bucket_1: 695406
Critical_ROB_Stalls_Percent_8_Bucket_2: 65
Non-critical_ROB_Stalls_Percent_8_Bucket_2: 243305
Critical_ROB_Stalls_Percent_8_Bucket_3: 2
Non-critical_ROB_Stalls_Percent_8_Bucket_3: 58822
Critical_ROB_Stalls_Percent_8_Bucket_4: 4
Non-critical_ROB_Stalls_Percent_8_Bucket_4: 20352
Critical_ROB_Stalls_Percent_8_Bucket_5: 2
Non-critical_ROB_Stalls_Percent_8_Bucket_5: 9558
Critical_ROB_Stalls_Percent_8_Bucket_6: 25
Non-critical_ROB_Stalls_Percent_8_Bucket_6: 22093
Average ROB occupancy Load Stall Begin: 38.452
Average ROB occupancy Load Stall End: 46.6839
Min ROB occupancy Load Stall Begin: 1
Max ROB occupancy Load Stall Begin: 352
Min ROB occupancy Load Stall End: 1
Max ROB occupancy Load Stall End: 352
Average ROB occupancy Critical Load Stall Begin: 22.4817
Average ROB occupancy Critical Load Stall End: 31.0284
Min ROB occupancy Critical Load Stall Begin: 2
Max ROB occupancy Critical Load Stall Begin: 248
Min ROB occupancy Critical Load Stall End: 2
Max ROB occupancy Critical Load Stall End: 248
 ROB Load Stall Begin Bucket Count 0: 2588067
 ROB Load Stall End Bucket Count 0: 2358205
 ROB Critical Load Stall Begin Bucket Count 0: 4991
 ROB Critical Load Stall End Bucket Count 0: 4914
 ROB Load Stall Begin Bucket Count 1: 552028
 ROB Load Stall End Bucket Count 1: 695883
 ROB Critical Load Stall Begin Bucket Count 1: 175
 ROB Critical Load Stall End Bucket Count 1: 242
 ROB Load Stall Begin Bucket Count 2: 180274
 ROB Load Stall End Bucket Count 2: 243370
 ROB Critical Load Stall Begin Bucket Count 2: 7
 ROB Critical Load Stall End Bucket Count 2: 18
 ROB Load Stall Begin Bucket Count 3: 41799
 ROB Load Stall End Bucket Count 3: 58824
 ROB Critical Load Stall Begin Bucket Count 3: 4
 ROB Critical Load Stall End Bucket Count 3: 4
 ROB Load Stall Begin Bucket Count 4: 16549
 ROB Load Stall End Bucket Count 4: 20356
 ROB Critical Load Stall Begin Bucket Count 4: 1
 ROB Critical Load Stall End Bucket Count 4: 1
 ROB Load Stall Begin Bucket Count 5: 8530
 ROB Load Stall End Bucket Count 5: 9560
 ROB Critical Load Stall Begin Bucket Count 5: 0
 ROB Critical Load Stall End Bucket Count 5: 0
 ROB Load Stall Begin Bucket Count 6: 21069
 ROB Load Stall End Bucket Count 6: 22118
 ROB Critical Load Stall Begin Bucket Count 6: 0
 ROB Critical Load Stall End Bucket Count 6: 0
PIST Tag Read Accesses: 0
PIST Read Accesses: 0
PIST Tag Write Accesses: 0
PIST Write Accesses: 0
Criticality detector called times: 0
Max global_stall_cycles_count: 0
Threshold Modified: 0 times, factor: 0
Sturdy critical IP cache stats: 
 Unused entries: 0
CIC Tag Read Accesses: 0
CIC Read Accesses: 0
CIC Tag Write Accesses: 0
CIC Write Accesses: 0
Wobbly critical IP cache stats: 
 Unused entries: 0
CIC Tag Read Accesses: 143665903
CIC Read Accesses: 0
CIC Tag Write Accesses: 90389
CIC Write Accesses: 0
ITLB TOTAL     ACCESS:    9969243  HIT:    9374023  MISS:     595220  HIT %:    94.0294  MISS %:    5.97056   MPKI: 11.9044
ITLB LOAD TRANSLATION ACCESS:    8220158  HIT:    8129354  MISS:      90804  HIT %:    98.8953  MISS %:    1.10465   MPKI: 1.81608
ITLB TRANSLATION FROM L1D PREFETCHER ACCESS:    1749085  HIT:    1244669  MISS:     504416  HIT %:    71.1611  MISS %:    28.8389   MPKI: 10.0883
ITLB PREFETCH  REQUESTED:          0  ISSUED:          0  USEFUL:     392266  USELESS:     112163
ITLB USEFUL LOAD PREFETCHES:     392266 PREFETCH ISSUED TO LOWER LEVEL:          0  ACCURACY: inf
ITLB TIMELY PREFETCHES:     392266 LATE PREFETCHES: 446 DROPPED PREFETCHES: 2967
ITLB PREFETCHES SAME FILL-ORIGIN LEVEL: 0 DIFFERENT FILL-ORIGIN LEVEL: 0
ITLB AVERAGE MISS LATENCY: 41995.9 cycles
ITLB RQ	ACCESS:   14411245	FORWARD:          0	MERGED:    4402222	TO_CACHE:   10009023

DTLB TOTAL     ACCESS:   11090771  HIT:   10639688  MISS:     451083  HIT %:    95.9328  MISS %:    4.06719   MPKI: 9.02166
DTLB LOAD TRANSLATION ACCESS:   11090771  HIT:   10639688  MISS:     451083  HIT %:    95.9328  MISS %:    4.06719   MPKI: 9.02166
DTLB PREFETCH  REQUESTED:          0  ISSUED:          0  USEFUL:          0  USELESS:          0
DTLB USEFUL LOAD PREFETCHES:          0 PREFETCH ISSUED TO LOWER LEVEL:          0  ACCURACY: -nan
DTLB TIMELY PREFETCHES:          0 LATE PREFETCHES: 0 DROPPED PREFETCHES: 0
DTLB PREFETCHES SAME FILL-ORIGIN LEVEL: 0 DIFFERENT FILL-ORIGIN LEVEL: 0
DTLB AVERAGE MISS LATENCY: 9.58622 cycles
DTLB RQ	ACCESS:   14448363	FORWARD:          0	MERGED:    3331437	TO_CACHE:   11116926

STLB TOTAL     ACCESS:    1046303  HIT:    1043233  MISS:       3070  HIT %:    99.7066  MISS %:   0.293414   MPKI: 0.0614
STLB LOAD TRANSLATION ACCESS:     541442  HIT:     538611  MISS:       2831  HIT %:    99.4771  MISS %:   0.522863   MPKI: 0.05662
STLB TRANSLATION FROM L1D PREFETCHER ACCESS:     504861  HIT:     504622  MISS:        239  HIT %:    99.9527  MISS %:  0.0473398   MPKI: 0.00478
STLB PREFETCH  REQUESTED:          0  ISSUED:          0  USEFUL:        194  USELESS:         44
STLB USEFUL LOAD PREFETCHES:        194 PREFETCH ISSUED TO LOWER LEVEL:          0  ACCURACY: inf
STLB TIMELY PREFETCHES:        194 LATE PREFETCHES: 0 DROPPED PREFETCHES: 2968
STLB PREFETCHES SAME FILL-ORIGIN LEVEL: 0 DIFFERENT FILL-ORIGIN LEVEL: 0
STLB AVERAGE MISS LATENCY: 100.638 cycles
STLB RQ	ACCESS:    1049271	FORWARD:          0	MERGED:          0	TO_CACHE:    1049271

STLB Hit, L1D data hit: 0
STLB Hit, L2C data hit: 0
STLB Hit, LLC data hit: 0
STLB Hit, LLC data miss: 0
STLB STLB hints to L2: 0
L1D TOTAL     ACCESS:   13976590  HIT:   13017622  MISS:     958968  HIT %:    93.1388  MISS %:    6.86124   MPKI: 19.1794
L1D LOAD      ACCESS:    7900517  HIT:    7209692  MISS:     690825  HIT %:     91.256  MISS %:    8.74405   MPKI: 13.8165
L1D RFO       ACCESS:    6076073  HIT:    5807930  MISS:     268143  HIT %:    95.5869  MISS %:     4.4131   MPKI: 5.36286
L1D PREFETCH  REQUESTED:          0  ISSUED:          0  USEFUL:          0  USELESS:          0
L1D USEFUL LOAD PREFETCHES:          0 PREFETCH ISSUED TO LOWER LEVEL:          0  ACCURACY: -nan
L1D TIMELY PREFETCHES:          0 LATE PREFETCHES: 0 DROPPED PREFETCHES: 0
L1D PREFETCHES SAME FILL-ORIGIN LEVEL: 0 DIFFERENT FILL-ORIGIN LEVEL: 0
L1D AVERAGE MISS LATENCY: 26.857 cycles
L1D RQ	ACCESS:   11307159	FORWARD:          0	MERGED:    3242933	TO_CACHE:    7938212
L1D WQ	ACCESS:    6576972	FORWARD:     126014	MERGED:      66821	TO_CACHE:    6510151

L1D UNIQUE REGIONS ACCESSED: 0
L1D REGIONS CONFLICTS: 0
L1D Cross Page Prefetch Requests: 0
L1D Same Page Prefetch Requests: 0
L1D ROI Sum of L1D PQ occupancy: 0
L1D PREFETCHES PUSHED FROM L2C: 0
L1I TOTAL     ACCESS:   14262990  HIT:   10684001  MISS:    3578989  HIT %:    74.9072  MISS %:    25.0928   MPKI: 71.5798
L1I LOAD      ACCESS:    9509673  HIT:    9229826  MISS:     279847  HIT %:    97.0572  MISS %:    2.94276   MPKI: 5.59694
L1I PREFETCH  ACCESS:    4753317  HIT:    1454175  MISS:    3299142  HIT %:    30.5928  MISS %:    69.4072   MPKI: 65.9828
L1I PREFETCH  REQUESTED:    5004259  ISSUED:    4988972  USEFUL:    2237534  USELESS:    1061677
L1I USEFUL LOAD PREFETCHES:    2237534 PREFETCH ISSUED TO LOWER LEVEL:    3329563  ACCURACY: 67.202
L1I TIMELY PREFETCHES:    2237534 LATE PREFETCHES: 30421 DROPPED PREFETCHES: 7451
L1I PREFETCHES SAME FILL-ORIGIN LEVEL: 3329563 DIFFERENT FILL-ORIGIN LEVEL: 0
L1I AVERAGE MISS LATENCY: 451744 cycles
L1I RQ	ACCESS:   13478119	FORWARD:          0	MERGED:    3943060	TO_CACHE:    9535059
L1I PQ	ACCESS:    4988972	FORWARD:          0	MERGED:     112786	TO_CACHE:    4876186

BTB TOTAL     ACCESS:    6310555  HIT:    4653135  MISS:    1657420  HIT %:    73.7357  MISS %:    26.2643   MPKI: 33.1484
BTB BRANCH_DIRECT_JUMP	ACCESS:     548369  HIT:     407711  MISS:     140658
BTB BRANCH_INDIRECT	ACCESS:     189802  HIT:     158498  MISS:      31304
BTB BRANCH_CONDITIONAL	ACCESS:    3531690  HIT:    3094097  MISS:     437593
BTB BRANCH_DIRECT_CALL	ACCESS:     862205  HIT:     537301  MISS:     324904
BTB BRANCH_INDIRECT_CALL	ACCESS:     158147  HIT:      91210  MISS:      66937
BTB BRANCH_RETURN	ACCESS:    1020342  HIT:     364318  MISS:     656024
BTB BRANCH_OTHER ACCESS:          0  HIT:          0  MISS:          0

L2C TOTAL     ACCESS:    5697709  HIT:    5212753  MISS:     484956  HIT %:    91.4886  MISS %:    8.51142   MPKI: 9.69912
L2C LOAD      ACCESS:     940224  HIT:     770107  MISS:     170117  HIT %:    81.9068  MISS %:    18.0932   MPKI: 3.40234
L2C DATA LOAD MPKI: 2.71414
L2C INSTRUCTION LOAD MPKI: 0.6882
L2C RFO       ACCESS:     268140  HIT:     206399  MISS:      61741  HIT %:    76.9743  MISS %:    23.0257   MPKI: 1.23482
L2C PREFETCH  ACCESS:    4029418  HIT:    3797997  MISS:     231421  HIT %:    94.2567  MISS %:    5.74329   MPKI: 4.62842
L2C DATA PREFETCH MPKI: 0.11746
L2C INSTRUCTION PREFETCH MPKI: 4.51096
L2C WRITEBACK ACCESS:     451661  HIT:     432423  MISS:      19238  HIT %:    95.7406  MISS %:    4.25939   MPKI: 0.38476
L2C LOAD TRANSLATION ACCESS:       3066  HIT:        896  MISS:       2170  HIT %:    29.2237  MISS %:    70.7763   MPKI: 0.0434
L2C TRANSLATION FROM L1D PREFETCHER ACCESS:       5200  HIT:       4931  MISS:        269  HIT %:    94.8269  MISS %:    5.17308   MPKI: 0.00538
L2C PREFETCH  REQUESTED:    3627661  ISSUED:    3627660  USEFUL:       8546  USELESS:     223494
L2C USEFUL LOAD PREFETCHES:       8546 PREFETCH ISSUED TO LOWER LEVEL:     920240  ACCURACY: 0.928671
L2C TIMELY PREFETCHES:       8546 LATE PREFETCHES: 1 DROPPED PREFETCHES: 0
L2C PREFETCHES SAME FILL-ORIGIN LEVEL: 5901 DIFFERENT FILL-ORIGIN LEVEL: 688818
L2C AVERAGE MISS LATENCY: 41.2368 cycles
L2C RQ	ACCESS:    1216660	FORWARD:          0	MERGED:          0	TO_CACHE:    1216630
L2C WQ	ACCESS:     451661	FORWARD:         30	MERGED:          0	TO_CACHE:     451661
L2C PQ	ACCESS:    6957223	FORWARD:          0	MERGED:    2237269	TO_CACHE:    4719954

L2C Instructions Evicting Data 111759
L2C Translations Evicting Data 1465
L2C Data Evicting Data 100601
L2C Instructions Evicting Instructions 147242
L2C Translations Evicting Instructions 951
L2C Data Evicting Instructions 101343
L2C Instructions Evicting Translations 957
L2C Translations Evicting Translations 23
L2C Data Evicting Translations 1377
L2C Dense regions hint from L2: 0
PSCL5 TOTAL     ACCESS:       6038  HIT:       6038  MISS:          0  HIT %:        100  MISS %:          0   MPKI: 0
PSCL5 LOAD TRANSLATION ACCESS:       2831  HIT:       2831  MISS:          0  HIT %:        100  MISS %:          0   MPKI: 0
PSCL5 TRANSLATION FROM L1D PREFETCHER ACCESS:       3207  HIT:       3207  MISS:          0  HIT %:        100  MISS %:          0   MPKI: 0
PSCL5 PREFETCH  REQUESTED:          0  ISSUED:          0  USEFUL:          0  USELESS:          0
PSCL5 USEFUL LOAD PREFETCHES:          0 PREFETCH ISSUED TO LOWER LEVEL:          0  ACCURACY: -nan
PSCL5 TIMELY PREFETCHES:          0 LATE PREFETCHES: 0 DROPPED PREFETCHES: 0
PSCL5 PREFETCHES SAME FILL-ORIGIN LEVEL: 0 DIFFERENT FILL-ORIGIN LEVEL: 0

PSCL4 TOTAL     ACCESS:       5698  HIT:       5682  MISS:         16  HIT %:    99.7192  MISS %:     0.2808   MPKI: 0.00032
PSCL4 LOAD TRANSLATION ACCESS:       2502  HIT:       2486  MISS:         16  HIT %:    99.3605  MISS %:   0.639488   MPKI: 0.00032
PSCL4 TRANSLATION FROM L1D PREFETCHER ACCESS:       3196  HIT:       3196  MISS:          0  HIT %:        100  MISS %:          0   MPKI: 0
PSCL4 PREFETCH  REQUESTED:          0  ISSUED:          0  USEFUL:          0  USELESS:          0
PSCL4 USEFUL LOAD PREFETCHES:          0 PREFETCH ISSUED TO LOWER LEVEL:          0  ACCURACY: -nan
PSCL4 TIMELY PREFETCHES:          0 LATE PREFETCHES: 0 DROPPED PREFETCHES: 0
PSCL4 PREFETCHES SAME FILL-ORIGIN LEVEL: 0 DIFFERENT FILL-ORIGIN LEVEL: 0

PSCL3 TOTAL     ACCESS:       6019  HIT:       6003  MISS:         16  HIT %:    99.7342  MISS %:   0.265825   MPKI: 0.00032
PSCL3 LOAD TRANSLATION ACCESS:       2823  HIT:       2807  MISS:         16  HIT %:    99.4332  MISS %:   0.566773   MPKI: 0.00032
PSCL3 TRANSLATION FROM L1D PREFETCHER ACCESS:       3196  HIT:       3196  MISS:          0  HIT %:        100  MISS %:          0   MPKI: 0
PSCL3 PREFETCH  REQUESTED:          0  ISSUED:          0  USEFUL:          0  USELESS:          0
PSCL3 USEFUL LOAD PREFETCHES:          0 PREFETCH ISSUED TO LOWER LEVEL:          0  ACCURACY: -nan
PSCL3 TIMELY PREFETCHES:          0 LATE PREFETCHES: 0 DROPPED PREFETCHES: 0
PSCL3 PREFETCHES SAME FILL-ORIGIN LEVEL: 0 DIFFERENT FILL-ORIGIN LEVEL: 0

PSCL2 TOTAL     ACCESS:       4082  HIT:       3813  MISS:        269  HIT %:    93.4101  MISS %:    6.58991   MPKI: 0.00538
PSCL2 LOAD TRANSLATION ACCESS:       2866  HIT:       2597  MISS:        269  HIT %:    90.6141  MISS %:     9.3859   MPKI: 0.00538
PSCL2 TRANSLATION FROM L1D PREFETCHER ACCESS:       1216  HIT:       1216  MISS:          0  HIT %:        100  MISS %:          0   MPKI: 0
PSCL2 PREFETCH  REQUESTED:          0  ISSUED:          0  USEFUL:          0  USELESS:          0
PSCL2 USEFUL LOAD PREFETCHES:          0 PREFETCH ISSUED TO LOWER LEVEL:          0  ACCURACY: -nan
PSCL2 TIMELY PREFETCHES:          0 LATE PREFETCHES: 0 DROPPED PREFETCHES: 0
PSCL2 PREFETCHES SAME FILL-ORIGIN LEVEL: 0 DIFFERENT FILL-ORIGIN LEVEL: 0

LLC TOTAL     ACCESS:    1239172  HIT:    1196083  MISS:      43089  HIT %:    96.5228  MISS %:    3.47724   MPKI: 0.86178
LLC LOAD      ACCESS:     170116  HIT:     153771  MISS:      16345  HIT %:    90.3919  MISS %:    9.60815   MPKI: 0.3269
LLC RFO       ACCESS:      61738  HIT:      42459  MISS:      19279  HIT %:    68.7729  MISS %:    31.2271   MPKI: 0.38558
LLC PREFETCH  ACCESS:     918024  HIT:     911612  MISS:       6412  HIT %:    99.3015  MISS %:   0.698457   MPKI: 0.12824
LLC WRITEBACK ACCESS:      86855  HIT:      86266  MISS:        589  HIT %:    99.3219  MISS %:   0.678142   MPKI: 0.01178
LLC LOAD TRANSLATION ACCESS:       2170  HIT:       1751  MISS:        419  HIT %:    80.6912  MISS %:    19.3088   MPKI: 0.00838
LLC TRANSLATION FROM L1D PREFETCHER ACCESS:        269  HIT:        224  MISS:         45  HIT %:    83.2714  MISS %:    16.7286   MPKI: 0.0009
LLC PREFETCH  REQUESTED:          0  ISSUED:          0  USEFUL:        435  USELESS:       6958
LLC USEFUL LOAD PREFETCHES:        435 PREFETCH ISSUED TO LOWER LEVEL:       6427  ACCURACY: 6.76832
LLC TIMELY PREFETCHES:        435 LATE PREFETCHES: 15 DROPPED PREFETCHES: 0
LLC PREFETCHES SAME FILL-ORIGIN LEVEL: 4627 DIFFERENT FILL-ORIGIN LEVEL: 0
LLC AVERAGE MISS LATENCY: 157.214 cycles
LLC RQ	ACCESS:     234296	FORWARD:          0	MERGED:          0	TO_CACHE:     234293
LLC WQ	ACCESS:      86855	FORWARD:          3	MERGED:          0	TO_CACHE:      86855
LLC PQ	ACCESS:     920240	FORWARD:          0	MERGED:       2168	TO_CACHE:     918072

LLC Dense regions hint to LLC: 0

RAW hits: 923140
Loads Generated: 12230300
Loads sent to L1D: 11307159
Stores Generated: 6576955
Stores sent to L1D: 6576972
Major fault: 0 Minor fault: 2897
Allocated PAGES: 2897
I-Shadow cache 408 bytes
Touched + WorthPF tables 6144 bytes 
MMA filter 174 bytes 
FNL filter 272 bytes 
TOTAL PREFETCHER STORAGE SIZE: 25174 bytes
CPU 0 L1I next line prefetcher final stats
 All Calls: 8370760
 Critical Calls: 5688924
------------------
Depth Distribution
------------------
depth 0: 0
depth 1: 5309502
depth 2: 2966347
depth 3: 79249
depth 4: 735
depth 5: 208
depth 6: 129
depth 7: 103
depth 8: 76
depth 9: 44
depth 10: 11
depth 11: 0
depth 12: 0
depth 13: 0
depth 14: 0
depth 15: 0
depth 16: 0
depth 17: 0
depth 18: 0
depth 19: 0
depth 20: 0
depth 21: 0
depth 22: 0
depth 23: 0
depth 24: 0
depth 25: 0
depth 26: 0
depth 27: 0
depth 28: 0
depth 29: 0
Total: 8356404
-----------------------------
-----------------------------
	Captured at Filter
-----------------------------
depth 0: 0
depth 1: 292145
depth 2: 151772
depth 3: 7630
depth 4: 96
depth 5: 6
depth 6: 0
depth 7: 0
depth 8: 0
depth 9: 0
depth 10: 0
depth 11: 0
depth 12: 0
depth 13: 0
depth 14: 0
depth 15: 0
depth 16: 0
depth 17: 0
depth 18: 0
depth 19: 0
depth 20: 0
depth 21: 0
depth 22: 0
depth 23: 0
depth 24: 0
depth 25: 0
depth 26: 0
depth 27: 0
depth 28: 0
depth 29: 0
-----------------------------
-----------------------------
		Lost at Page
-----------------------------
depth 0: 0
depth 1: 159435
depth 2: 90723
depth 3: 2979
depth 4: 38
depth 5: 16
depth 6: 12
depth 7: 12
depth 8: 9
depth 9: 5
depth 10: 0
depth 11: 0
depth 12: 0
depth 13: 0
depth 14: 0
depth 15: 0
depth 16: 0
depth 17: 0
depth 18: 0
depth 19: 0
depth 20: 0
depth 21: 0
depth 22: 0
depth 23: 0
depth 24: 0
depth 25: 0
depth 26: 0
depth 27: 0
depth 28: 0
depth 29: 0
-----------------------------
-----------------------------
	Lost due to PQ Size
-----------------------------
37411
-----------------------------
ST read accesses: 2194516
ST write accesses: 203779
PT read accesses: 34576011
PT write accesses: 3021605
FILTER read accesses: 6731230
FILTER write accesses: 646701
GHR read accesses: 2497053
GHR write accesses: 148341
GHR counter read accesses: 29888606
GHR counter write accesses: 2555823
ST tag read accesses: 1023848194
ST tag write accesses: 88352466

DRAM Statistics
 CHANNEL 0
 RQ ROW_BUFFER_HIT:      12895  ROW_BUFFER_MISS:      29601
 DBUS_CONGESTED:          8
 WQ ROW_BUFFER_HIT:       2243  ROW_BUFFER_MISS:      18066  FULL:          0

 AVG_CONGESTED_CYCLE: 5
 All warmup complete: 2
Channel 0 Bank busy for read cycles: 0
Channel 0 Bank busy for write cycles: 0
Channel 0
Rank 0
0banks busy for read cycles: 74299093
0banks busy for write cycles: 5995
1banks busy for read cycles: 2404269
1banks busy for write cycles: 878516
2banks busy for read cycles: 288950
2banks busy for write cycles: 253763
3banks busy for read cycles: 105228
3banks busy for write cycles: 169569
4banks busy for read cycles: 61924
4banks busy for write cycles: 128665
5banks busy for read cycles: 43451
5banks busy for write cycles: 115679
6banks busy for read cycles: 45159
6banks busy for write cycles: 97278
7banks busy for read cycles: 48711
7banks busy for write cycles: 85980
8banks busy for read cycles: 92140
8banks busy for write cycles: 107176

CPU 0 Branch Prediction Accuracy: 99.6798% MPKI: 0.58608 Average ROB Occupancy at Mispredict: 62.6088
Branch types
NOT_BRANCH: 40848095 81.6962%
BRANCH_DIRECT_JUMP: 548369 1.09674%
BRANCH_INDIRECT: 189802 0.379604%
BRANCH_CONDITIONAL: 6372724 12.7454%
BRANCH_DIRECT_CALL: 862205 1.72441%
BRANCH_INDIRECT_CALL: 158147 0.316294%
BRANCH_RETURN: 1020342 2.04068%
BRANCH_OTHER: 0 0%

DRAM PAGES: 1048576
Allocated PAGES: 2897
