
*** ChampSim Multicore Out-of-Order Simulator ***

Warmup Instructions: 50000000
Simulation Instructions: 50000000
Number of CPUs: 1
LLC sets: 2048
LLC ways: 16
Off-chip DRAM Size: 4096 MB Channels: 1 Width: 64-bit Data Rate: 6400 MT/s
CPU 0 runs ../IPC-traces//server_019.champsimtrace.xz
.xz
NUM_OF_IPS_IN_CRITICAL_IP_TRAINING: 64
NUM_OF_CRITICAL_IP_TRAINING_TABLE_WAYS: 2
NUM_OF_CRITICAL_IP_TRAINING_TABLE_SETS: 32
WOBBLY_CRITICAL_IP_CACHE_SETS: 32
WOBBLY_CRITICAL_IP_CACHE_WAYS: 4
BTB has LRU replacement policy
ITLB has LRU replacement policy
DTLB has LRU replacement policy
STLB has LRU replacement policy
CPU 0 L1I next line prefetcher
L1I has LRU replacement policy
IP Table Entries: 64
L1D has LRU replacement policy
Initialize SRRIP state for L2C
Initialize DRRIP state for LLC
Heartbeat CPU 0 instructions: 10000002 cycles: 3293227 heartbeat IPC: 3.03654 cumulative IPC: 3.03654 (Simulation time: 0 hr 3 min 26 sec) 
Heartbeat CPU 0 instructions: 20000001 cycles: 6586156 heartbeat IPC: 3.03681 cumulative IPC: 3.03667 (Simulation time: 0 hr 6 min 16 sec) 
Heartbeat CPU 0 instructions: 30000001 cycles: 9882029 heartbeat IPC: 3.0341 cumulative IPC: 3.03581 (Simulation time: 0 hr 8 min 59 sec) 
Heartbeat CPU 0 instructions: 40000002 cycles: 13185959 heartbeat IPC: 3.0267 cumulative IPC: 3.03353 (Simulation time: 0 hr 11 min 25 sec) 
Heartbeat CPU 0 instructions: 50000001 cycles: 16481724 heartbeat IPC: 3.0342 cumulative IPC: 3.03366 (Simulation time: 0 hr 13 min 40 sec) 

Warmup complete CPU 0 instructions: 50000001 cycles: 16481724 (Simulation time: 0 hr 13 min 40 sec) 

% increase in all ip prefetch 580.1
% increase in all ip prefetch -14.7834
Heartbeat CPU 0 instructions: 60000003 cycles: 37599846 heartbeat IPC: 0.473527 cumulative IPC: 0.473527 (Simulation time: 0 hr 17 min 40 sec) 
Heartbeat CPU 0 instructions: 70000002 cycles: 63972277 heartbeat IPC: 0.379184 cumulative IPC: 0.421136 (Simulation time: 0 hr 21 min 23 sec) 
Heartbeat CPU 0 instructions: 80000001 cycles: 89215461 heartbeat IPC: 0.396147 cumulative IPC: 0.412463 (Simulation time: 0 hr 25 min 1 sec) 
Heartbeat CPU 0 instructions: 90000001 cycles: 109658732 heartbeat IPC: 0.489159 cumulative IPC: 0.42929 (Simulation time: 0 hr 30 min 19 sec) 
Heartbeat CPU 0 instructions: 100000002 cycles: 129405610 heartbeat IPC: 0.506409 cumulative IPC: 0.442776 (Simulation time: 0 hr 35 min 3 sec) 
Finished CPU 0 instructions: 50000001 cycles: 112923886 cumulative IPC: 0.442776 (Simulation time: 0 hr 35 min 3 sec) 

ChampSim completed all CPUs

Region of Interest Statistics

CPU 0 cumulative IPC: 0.442776 instructions: 50000001 cycles: 112923886

CPU 0 Average Load ROB stall cycles: 3.39521e+07
CPU 0 Fraction of times ROB stalled by Loads: 45.3243
CPU 0 Percentage of Load stall cycles in Total stall cycles: 2.50667e+08
Issued all: 47958583
Issued LT all: 42548987
rob_not_full_when_issued_lt_all: 17183239
Issued LT one: 36922348
rob_not_full_when_issued_lt_one: 13279027
critical_ip_candidate_identification_operations: 6372274
critical_ip_candidate_identification_operation_per_cycle: 0.0564298
 Total stall cycles: 95214298
 Total load stall cycles: 238671122480219
Unique Load IPs: 7411
CPU 0 NUM of IPS identified critical: 18
CPU 0 Num of Load IPs stalling ROB: 5499
Threshold modification factor: -1
Max PIST entries: 64
Min PIST entries: 0
Avg PIST entries: 30.29
Trouble in retire width: 0.822885
MaC = Marked as critical.
lt_50_percent_before_Mac: 17
gt_90_percent_before_Mac: 0
gt_75_percent_before_Mac: 1
gt_50_percent_before_Mac: 0
stall_proportion_bin_same_before_after: 0
stall_proportion_bin_lower_before_after: 0
stall_proportion_bin_upper_before_after: 0
average_stall_proportion_before: 0.0452478
average_stall_proportion_after: 0.0453054
Critical IP stalls, total frequency: 1672293
Non-critical IP stalls, total frequency: 1513844
Total Freq all stalling IPs: 3186137
Critical_IP_Detector_Accuracy_70: 1
Critical_IP_Detector_Accuracy_80: 1
Critical_IP_Detector_Accuracy_90: 1
Critical_IP_Detector_Coverage_70: 0.139535
Critical_IP_Detector_Coverage_80: 0.0636042
Critical_IP_Detector_Coverage_90: 0.037422
stat_90_percent_critical_ip_stalls_freq: 2868058
stat_90_percent_non_critical_ip_stalls_freq: 318079
AVERAGE_ROB_Occupancy_90_Percent_Critical_IP_Stalls: 198.423
AVERAGE_ROB_Occupancy_90_Percent_Non_Critical_IP_Stalls: 111.686
Critical_IP_ROB_Stalls_Bucket_0: 42983
Non-critical_IP_ROB_Stalls_Bucket_0: 426330
Critical_IP_ROB_Stalls_Bucket_1: 97285
Non-critical_IP_ROB_Stalls_Bucket_1: 480996
Critical_IP_ROB_Stalls_Bucket_2: 183368
Non-critical_IP_ROB_Stalls_Bucket_2: 284634
Critical_IP_ROB_Stalls_Bucket_3: 218721
Non-critical_IP_ROB_Stalls_Bucket_3: 109870
Critical_IP_ROB_Stalls_Bucket_4: 127825
Non-critical_IP_ROB_Stalls_Bucket_4: 55876
Critical_IP_ROB_Stalls_Bucket_5: 123371
Non-critical_IP_ROB_Stalls_Bucket_5: 44536
Critical_IP_ROB_Stalls_Bucket_6: 878740
Non-critical_IP_ROB_Stalls_Bucket_6: 111602
0 => IPs accounting for >50 percent of stalls, 1 => 55, 2 => 60, 3 => 65 and so on till 90.
percent50: 50.3582 num IPs:  8
percent55: 55.3297 num IPs: 15
percent60: 60.0304 num IPs: 34
percent65: 65.0575 num IPs: 70
percent70: 70.058 num IPs: 129
percent75: 75.019 num IPs: 205
percent80: 80.0054 num IPs: 283
percent85: 85.0405 num IPs: 369
percent90: 90.0166 num IPs: 481
Critical_ROB_Stalls_Percent_0_Bucket_0: 36350
Non-critical_ROB_Stalls_Percent_0_Bucket_0: 432963
Critical_ROB_Stalls_Percent_0_Bucket_1: 93372
Non-critical_ROB_Stalls_Percent_0_Bucket_1: 484909
Critical_ROB_Stalls_Percent_0_Bucket_2: 186104
Non-critical_ROB_Stalls_Percent_0_Bucket_2: 281898
Critical_ROB_Stalls_Percent_0_Bucket_3: 186084
Non-critical_ROB_Stalls_Percent_0_Bucket_3: 142507
Critical_ROB_Stalls_Percent_0_Bucket_4: 123357
Non-critical_ROB_Stalls_Percent_0_Bucket_4: 60344
Critical_ROB_Stalls_Percent_0_Bucket_5: 114702
Non-critical_ROB_Stalls_Percent_0_Bucket_5: 53205
Critical_ROB_Stalls_Percent_0_Bucket_6: 864512
Non-critical_ROB_Stalls_Percent_0_Bucket_6: 125830
Critical_ROB_Stalls_Percent_1_Bucket_0: 62207
Non-critical_ROB_Stalls_Percent_1_Bucket_0: 407106
Critical_ROB_Stalls_Percent_1_Bucket_1: 148130
Non-critical_ROB_Stalls_Percent_1_Bucket_1: 430151
Critical_ROB_Stalls_Percent_1_Bucket_2: 207016
Non-critical_ROB_Stalls_Percent_1_Bucket_2: 260986
Critical_ROB_Stalls_Percent_1_Bucket_3: 218256
Non-critical_ROB_Stalls_Percent_1_Bucket_3: 110335
Critical_ROB_Stalls_Percent_1_Bucket_4: 132214
Non-critical_ROB_Stalls_Percent_1_Bucket_4: 51487
Critical_ROB_Stalls_Percent_1_Bucket_5: 125310
Non-critical_ROB_Stalls_Percent_1_Bucket_5: 42597
Critical_ROB_Stalls_Percent_1_Bucket_6: 869748
Non-critical_ROB_Stalls_Percent_1_Bucket_6: 120594
Critical_ROB_Stalls_Percent_2_Bucket_0: 123149
Non-critical_ROB_Stalls_Percent_2_Bucket_0: 346164
Critical_ROB_Stalls_Percent_2_Bucket_1: 194612
Non-critical_ROB_Stalls_Percent_2_Bucket_1: 383669
Critical_ROB_Stalls_Percent_2_Bucket_2: 222603
Non-critical_ROB_Stalls_Percent_2_Bucket_2: 245399
Critical_ROB_Stalls_Percent_2_Bucket_3: 229985
Non-critical_ROB_Stalls_Percent_2_Bucket_3: 98606
Critical_ROB_Stalls_Percent_2_Bucket_4: 136737
Non-critical_ROB_Stalls_Percent_2_Bucket_4: 46964
Critical_ROB_Stalls_Percent_2_Bucket_5: 129306
Non-critical_ROB_Stalls_Percent_2_Bucket_5: 38601
Critical_ROB_Stalls_Percent_2_Bucket_6: 876259
Non-critical_ROB_Stalls_Percent_2_Bucket_6: 114083
Critical_ROB_Stalls_Percent_3_Bucket_0: 175456
Non-critical_ROB_Stalls_Percent_3_Bucket_0: 293857
Critical_ROB_Stalls_Percent_3_Bucket_1: 224680
Non-critical_ROB_Stalls_Percent_3_Bucket_1: 353601
Critical_ROB_Stalls_Percent_3_Bucket_2: 255991
Non-critical_ROB_Stalls_Percent_3_Bucket_2: 212011
Critical_ROB_Stalls_Percent_3_Bucket_3: 236304
Non-critical_ROB_Stalls_Percent_3_Bucket_3: 92287
Critical_ROB_Stalls_Percent_3_Bucket_4: 142704
Non-critical_ROB_Stalls_Percent_3_Bucket_4: 40997
Critical_ROB_Stalls_Percent_3_Bucket_5: 137273
Non-critical_ROB_Stalls_Percent_3_Bucket_5: 30634
Critical_ROB_Stalls_Percent_3_Bucket_6: 900414
Non-critical_ROB_Stalls_Percent_3_Bucket_6: 89928
Critical_ROB_Stalls_Percent_4_Bucket_0: 210535
Non-critical_ROB_Stalls_Percent_4_Bucket_0: 258778
Critical_ROB_Stalls_Percent_4_Bucket_1: 275748
Non-critical_ROB_Stalls_Percent_4_Bucket_1: 302533
Critical_ROB_Stalls_Percent_4_Bucket_2: 286905
Non-critical_ROB_Stalls_Percent_4_Bucket_2: 181097
Critical_ROB_Stalls_Percent_4_Bucket_3: 248374
Non-critical_ROB_Stalls_Percent_4_Bucket_3: 80217
Critical_ROB_Stalls_Percent_4_Bucket_4: 146133
Non-critical_ROB_Stalls_Percent_4_Bucket_4: 37568
Critical_ROB_Stalls_Percent_4_Bucket_5: 142533
Non-critical_ROB_Stalls_Percent_4_Bucket_5: 25374
Critical_ROB_Stalls_Percent_4_Bucket_6: 921917
Non-critical_ROB_Stalls_Percent_4_Bucket_6: 68425
Critical_ROB_Stalls_Percent_5_Bucket_0: 237590
Non-critical_ROB_Stalls_Percent_5_Bucket_0: 231723
Critical_ROB_Stalls_Percent_5_Bucket_1: 333004
Non-critical_ROB_Stalls_Percent_5_Bucket_1: 245277
Critical_ROB_Stalls_Percent_5_Bucket_2: 313855
Non-critical_ROB_Stalls_Percent_5_Bucket_2: 154147
Critical_ROB_Stalls_Percent_5_Bucket_3: 268861
Non-critical_ROB_Stalls_Percent_5_Bucket_3: 59730
Critical_ROB_Stalls_Percent_5_Bucket_4: 161879
Non-critical_ROB_Stalls_Percent_5_Bucket_4: 21822
Critical_ROB_Stalls_Percent_5_Bucket_5: 149824
Non-critical_ROB_Stalls_Percent_5_Bucket_5: 18083
Critical_ROB_Stalls_Percent_5_Bucket_6: 925201
Non-critical_ROB_Stalls_Percent_5_Bucket_6: 65141
Critical_ROB_Stalls_Percent_6_Bucket_0: 272757
Non-critical_ROB_Stalls_Percent_6_Bucket_0: 196556
Critical_ROB_Stalls_Percent_6_Bucket_1: 395668
Non-critical_ROB_Stalls_Percent_6_Bucket_1: 182613
Critical_ROB_Stalls_Percent_6_Bucket_2: 352633
Non-critical_ROB_Stalls_Percent_6_Bucket_2: 115369
Critical_ROB_Stalls_Percent_6_Bucket_3: 278112
Non-critical_ROB_Stalls_Percent_6_Bucket_3: 50479
Critical_ROB_Stalls_Percent_6_Bucket_4: 165665
Non-critical_ROB_Stalls_Percent_6_Bucket_4: 18036
Critical_ROB_Stalls_Percent_6_Bucket_5: 151405
Non-critical_ROB_Stalls_Percent_6_Bucket_5: 16502
Critical_ROB_Stalls_Percent_6_Bucket_6: 932848
Non-critical_ROB_Stalls_Percent_6_Bucket_6: 57494
Critical_ROB_Stalls_Percent_7_Bucket_0: 319342
Non-critical_ROB_Stalls_Percent_7_Bucket_0: 149971
Critical_ROB_Stalls_Percent_7_Bucket_1: 437022
Non-critical_ROB_Stalls_Percent_7_Bucket_1: 141259
Critical_ROB_Stalls_Percent_7_Bucket_2: 393356
Non-critical_ROB_Stalls_Percent_7_Bucket_2: 74646
Critical_ROB_Stalls_Percent_7_Bucket_3: 294496
Non-critical_ROB_Stalls_Percent_7_Bucket_3: 34095
Critical_ROB_Stalls_Percent_7_Bucket_4: 169710
Non-critical_ROB_Stalls_Percent_7_Bucket_4: 13991
Critical_ROB_Stalls_Percent_7_Bucket_5: 154062
Non-critical_ROB_Stalls_Percent_7_Bucket_5: 13845
Critical_ROB_Stalls_Percent_7_Bucket_6: 941524
Non-critical_ROB_Stalls_Percent_7_Bucket_6: 48818
Critical_ROB_Stalls_Percent_8_Bucket_0: 367267
Non-critical_ROB_Stalls_Percent_8_Bucket_0: 102046
Critical_ROB_Stalls_Percent_8_Bucket_1: 490091
Non-critical_ROB_Stalls_Percent_8_Bucket_1: 88190
Critical_ROB_Stalls_Percent_8_Bucket_2: 417217
Non-critical_ROB_Stalls_Percent_8_Bucket_2: 50785
Critical_ROB_Stalls_Percent_8_Bucket_3: 302529
Non-critical_ROB_Stalls_Percent_8_Bucket_3: 26062
Critical_ROB_Stalls_Percent_8_Bucket_4: 173980
Non-critical_ROB_Stalls_Percent_8_Bucket_4: 9721
Critical_ROB_Stalls_Percent_8_Bucket_5: 157806
Non-critical_ROB_Stalls_Percent_8_Bucket_5: 10101
Critical_ROB_Stalls_Percent_8_Bucket_6: 959168
Non-critical_ROB_Stalls_Percent_8_Bucket_6: 31174
Average ROB occupancy Load Stall Begin: 180.463
Average ROB occupancy Load Stall End: 189.764
Min ROB occupancy Load Stall Begin: 1
Max ROB occupancy Load Stall Begin: 352
Min ROB occupancy Load Stall End: 1
Max ROB occupancy Load Stall End: 352
Average ROB occupancy Critical Load Stall Begin: 261.328
Average ROB occupancy Critical Load Stall End: 266.122
Min ROB occupancy Critical Load Stall Begin: 2
Max ROB occupancy Critical Load Stall Begin: 352
Min ROB occupancy Critical Load Stall End: 2
Max ROB occupancy Critical Load Stall End: 352
 ROB Load Stall Begin Bucket Count 0: 661263
 ROB Load Stall End Bucket Count 0: 469313
 ROB Critical Load Stall Begin Bucket Count 0: 53608
 ROB Critical Load Stall End Bucket Count 0: 35919
 ROB Load Stall Begin Bucket Count 1: 531296
 ROB Load Stall End Bucket Count 1: 578281
 ROB Critical Load Stall Begin Bucket Count 1: 102057
 ROB Critical Load Stall End Bucket Count 1: 88893
 ROB Load Stall Begin Bucket Count 2: 426260
 ROB Load Stall End Bucket Count 2: 468002
 ROB Critical Load Stall Begin Bucket Count 2: 181866
 ROB Critical Load Stall End Bucket Count 2: 172637
 ROB Load Stall Begin Bucket Count 3: 275240
 ROB Load Stall End Bucket Count 3: 328591
 ROB Critical Load Stall Begin Bucket Count 3: 190340
 ROB Critical Load Stall End Bucket Count 3: 210171
 ROB Load Stall Begin Bucket Count 4: 170550
 ROB Load Stall End Bucket Count 4: 183701
 ROB Critical Load Stall Begin Bucket Count 4: 125030
 ROB Critical Load Stall End Bucket Count 4: 126954
 ROB Load Stall Begin Bucket Count 5: 164361
 ROB Load Stall End Bucket Count 5: 167907
 ROB Critical Load Stall Begin Bucket Count 5: 115180
 ROB Critical Load Stall End Bucket Count 5: 122682
 ROB Load Stall Begin Bucket Count 6: 957167
 ROB Load Stall End Bucket Count 6: 990342
 ROB Critical Load Stall Begin Bucket Count 6: 864542
 ROB Critical Load Stall End Bucket Count 6: 875367
PIST Tag Read Accesses: 2452320
PIST Read Accesses: 1226160
PIST Tag Write Accesses: 2452320
PIST Write Accesses: 1226160
Criticality detector called times: 1553514
Max global_stall_cycles_count: 3834934
Threshold Modified: 1 times, factor: -1
Sturdy critical IP cache stats: 
 Unused entries: 0
CIC Tag Read Accesses: 0
CIC Read Accesses: 0
CIC Tag Write Accesses: 0
CIC Write Accesses: 0
Wobbly critical IP cache stats: 
 Unused entries: 110
CIC Tag Read Accesses: 88485867
CIC Read Accesses: 0
CIC Tag Write Accesses: 86413
CIC Write Accesses: 0
ITLB TOTAL     ACCESS:    9984987  HIT:    9560251  MISS:     424736  HIT %:    95.7463  MISS %:    4.25375   MPKI: 8.49472
ITLB LOAD TRANSLATION ACCESS:    8280379  HIT:    8268024  MISS:      12355  HIT %:    99.8508  MISS %:   0.149208   MPKI: 0.2471
ITLB TRANSLATION FROM L1D PREFETCHER ACCESS:    1704608  HIT:    1292227  MISS:     412381  HIT %:    75.8079  MISS %:    24.1921   MPKI: 8.24762
ITLBprefetch_cycle_count: 0 prefetches_per_prefetch_cycle: -nan
ITLB PREFETCH  REQUESTED:          0  ISSUED:          0  USEFUL:     366381  USELESS:      45993
ITLB USEFUL LOAD PREFETCHES:     366381 PREFETCH ISSUED TO LOWER LEVEL:          0  ACCURACY: inf
ITLB TIMELY PREFETCHES:     366381 LATE PREFETCHES: 1540 DROPPED PREFETCHES: 90
ITLB PREFETCHES SAME FILL-ORIGIN LEVEL: 0 DIFFERENT FILL-ORIGIN LEVEL: 0
ITLB AVERAGE MISS LATENCY: 347158 cycles
ITLB RQ	ACCESS:   14070883	FORWARD:          0	MERGED:    4041077	TO_CACHE:   10029806

DTLB TOTAL     ACCESS:   10554300  HIT:   10111798  MISS:     442502  HIT %:    95.8074  MISS %:    4.19262   MPKI: 8.85004
DTLB LOAD TRANSLATION ACCESS:   10554300  HIT:   10111798  MISS:     442502  HIT %:    95.8074  MISS %:    4.19262   MPKI: 8.85004
DTLBprefetch_cycle_count: 0 prefetches_per_prefetch_cycle: -nan
DTLB PREFETCH  REQUESTED:          0  ISSUED:          0  USEFUL:          0  USELESS:          0
DTLB USEFUL LOAD PREFETCHES:          0 PREFETCH ISSUED TO LOWER LEVEL:          0  ACCURACY: -nan
DTLB TIMELY PREFETCHES:          0 LATE PREFETCHES: 0 DROPPED PREFETCHES: 0
DTLB PREFETCHES SAME FILL-ORIGIN LEVEL: 0 DIFFERENT FILL-ORIGIN LEVEL: 0
DTLB AVERAGE MISS LATENCY: 27.5578 cycles
DTLB RQ	ACCESS:   15308603	FORWARD:          0	MERGED:    4673230	TO_CACHE:   10635373

STLB TOTAL     ACCESS:    1446364  HIT:    1380228  MISS:      66136  HIT %:    95.4274  MISS %:    4.57257   MPKI: 1.32272
STLB LOAD TRANSLATION ACCESS:     453317  HIT:     388164  MISS:      65153  HIT %:    85.6275  MISS %:    14.3725   MPKI: 1.30306
STLB TRANSLATION FROM L1D PREFETCHER ACCESS:     993047  HIT:     992064  MISS:        983  HIT %:     99.901  MISS %:  0.0989883   MPKI: 0.01966
STLBprefetch_cycle_count: 0 prefetches_per_prefetch_cycle: -nan
STLB PREFETCH  REQUESTED:          0  ISSUED:          0  USEFUL:        780  USELESS:        220
STLB USEFUL LOAD PREFETCHES:        780 PREFETCH ISSUED TO LOWER LEVEL:          0  ACCURACY: inf
STLB TIMELY PREFETCHES:        780 LATE PREFETCHES: 0 DROPPED PREFETCHES: 90
STLB PREFETCHES SAME FILL-ORIGIN LEVEL: 0 DIFFERENT FILL-ORIGIN LEVEL: 0
STLB AVERAGE MISS LATENCY: 129.293 cycles
STLB RQ	ACCESS:    1544735	FORWARD:          0	MERGED:      98281	TO_CACHE:    1446454

STLB Hit, L1D data hit: 0
STLB Hit, L2C data hit: 0
STLB Hit, LLC data hit: 0
STLB Hit, LLC data miss: 0
STLB STLB hints to L2: 0
L1D TOTAL     ACCESS:   13798155  HIT:   11900002  MISS:    1898153  HIT %:    86.2434  MISS %:    13.7566   MPKI: 37.9631
L1D LOAD      ACCESS:    7266564  HIT:    6670850  MISS:     595714  HIT %:     91.802  MISS %:    8.19801   MPKI: 11.9143
L1D RFO       ACCESS:    5877956  HIT:    4963921  MISS:     914035  HIT %:    84.4498  MISS %:    15.5502   MPKI: 18.2807
L1D PREFETCH  ACCESS:     653635  HIT:     265231  MISS:     388404  HIT %:    40.5778  MISS %:    59.4222   MPKI: 7.76808
L1Dprefetch_cycle_count: 579533 prefetches_per_prefetch_cycle: 2.33777
L1D PREFETCH  REQUESTED:    1355542  ISSUED:    1354814  USEFUL:     284382  USELESS:     104022
L1D USEFUL LOAD PREFETCHES:     284382 PREFETCH ISSUED TO LOWER LEVEL:     398924  ACCURACY: 71.2873
L1D TIMELY PREFETCHES:     284382 LATE PREFETCHES: 10518 DROPPED PREFETCHES: 0
L1D PREFETCHES SAME FILL-ORIGIN LEVEL: 398924 DIFFERENT FILL-ORIGIN LEVEL: 0
L1D AVERAGE MISS LATENCY: 364383 cycles
L1D RQ	ACCESS:   10679336	FORWARD:          0	MERGED:    3271659	TO_CACHE:    7302184
L1D WQ	ACCESS:    8106889	FORWARD:     105493	MERGED:     100470	TO_CACHE:    8006419
L1D PQ	ACCESS:     677407	FORWARD:          0	MERGED:          0	TO_CACHE:     677407

L1D UNIQUE REGIONS ACCESSED: 0
L1D REGIONS CONFLICTS: 0
L1D Cross Page Prefetch Requests: 0
L1D Same Page Prefetch Requests: 695318
L1D ROI Sum of L1D PQ occupancy: 10776325
L1D PREFETCHES PUSHED FROM L2C: 0
L1I TOTAL     ACCESS:   13994330  HIT:   11216583  MISS:    2777747  HIT %:    80.1509  MISS %:    19.8491   MPKI: 55.5549
L1I LOAD      ACCESS:    9629613  HIT:    9603729  MISS:      25884  HIT %:    99.7312  MISS %:   0.268796   MPKI: 0.51768
L1I PREFETCH  ACCESS:    4364717  HIT:    1612854  MISS:    2751863  HIT %:    36.9521  MISS %:    63.0479   MPKI: 55.0373
L1Iprefetch_cycle_count: 0 prefetches_per_prefetch_cycle: inf
L1I PREFETCH  REQUESTED:    4610570  ISSUED:    4601942  USEFUL:    2306015  USELESS:     445866
L1I USEFUL LOAD PREFETCHES:    2306015 PREFETCH ISSUED TO LOWER LEVEL:    2763329  ACCURACY: 83.4506
L1I TIMELY PREFETCHES:    2306015 LATE PREFETCHES: 11466 DROPPED PREFETCHES: 157
L1I PREFETCHES SAME FILL-ORIGIN LEVEL: 2763329 DIFFERENT FILL-ORIGIN LEVEL: 0
L1I AVERAGE MISS LATENCY: 336166 cycles
L1I RQ	ACCESS:   13992377	FORWARD:          0	MERGED:    4356576	TO_CACHE:    9635801
L1I PQ	ACCESS:    4601942	FORWARD:          0	MERGED:     166860	TO_CACHE:    4435082

BTB TOTAL     ACCESS:    5496548  HIT:    5258230  MISS:     238318  HIT %:    95.6642  MISS %:    4.33578   MPKI: 4.76636
BTB BRANCH_DIRECT_JUMP	ACCESS:     462384  HIT:     460598  MISS:       1786
BTB BRANCH_INDIRECT	ACCESS:      45460  HIT:      45289  MISS:        171
BTB BRANCH_CONDITIONAL	ACCESS:    3246757  HIT:    3240936  MISS:       5821
BTB BRANCH_DIRECT_CALL	ACCESS:     666241  HIT:     662430  MISS:       3811
BTB BRANCH_INDIRECT_CALL	ACCESS:     204728  HIT:     179061  MISS:      25667
BTB BRANCH_RETURN	ACCESS:     870978  HIT:     669916  MISS:     201062
BTB BRANCH_OTHER ACCESS:          0  HIT:          0  MISS:          0

L2C TOTAL     ACCESS:    7073900  HIT:    5155653  MISS:    1918247  HIT %:    72.8828  MISS %:    27.1172   MPKI: 38.3649
L2C LOAD      ACCESS:     599605  HIT:     176011  MISS:     423594  HIT %:    29.3545  MISS %:    70.6455   MPKI: 8.47188
L2C DATA LOAD MPKI: 8.37818
L2C INSTRUCTION LOAD MPKI: 0.0937
L2C RFO       ACCESS:     914030  HIT:      32289  MISS:     881741  HIT %:     3.5326  MISS %:    96.4674   MPKI: 17.6348
L2C PREFETCH  ACCESS:    4304435  HIT:    3766132  MISS:     538303  HIT %:    87.4942  MISS %:    12.5058   MPKI: 10.7661
L2C DATA PREFETCH MPKI: 8.15594
L2C INSTRUCTION PREFETCH MPKI: 2.61012
L2C WRITEBACK ACCESS:    1162978  HIT:    1119616  MISS:      43362  HIT %:    96.2715  MISS %:    3.72853   MPKI: 0.86724
L2C LOAD TRANSLATION ACCESS:      91218  HIT:      60986  MISS:      30232  HIT %:    66.8574  MISS %:    33.1426   MPKI: 0.60464
L2C TRANSLATION FROM L1D PREFETCHER ACCESS:       1634  HIT:        619  MISS:       1015  HIT %:    37.8825  MISS %:    62.1175   MPKI: 0.0203
L2Cprefetch_cycle_count: 2758655 prefetches_per_prefetch_cycle: 1.00035
L2C PREFETCH  REQUESTED:    2759642  ISSUED:    2759633  USEFUL:       9732  USELESS:     528650
L2C USEFUL LOAD PREFETCHES:       9732 PREFETCH ISSUED TO LOWER LEVEL:     538881  ACCURACY: 1.80596
L2C TIMELY PREFETCHES:       9732 LATE PREFETCHES: 578 DROPPED PREFETCHES: 0
L2C PREFETCHES SAME FILL-ORIGIN LEVEL: 179283 DIFFERENT FILL-ORIGIN LEVEL: 0
L2C AVERAGE MISS LATENCY: 181.889 cycles
L2C RQ	ACCESS:    1606499	FORWARD:          0	MERGED:          0	TO_CACHE:    1606487
L2C WQ	ACCESS:    1162978	FORWARD:         12	MERGED:          0	TO_CACHE:    1162978
L2C PQ	ACCESS:    5921886	FORWARD:          0	MERGED:    1498822	TO_CACHE:    4423064

L2C Instructions Evicting Data 122668
L2C Translations Evicting Data 28428
L2C Data Evicting Data 1562111
L2C Instructions Evicting Instructions 10300
L2C Translations Evicting Instructions 2354
L2C Data Evicting Instructions 118396
L2C Instructions Evicting Translations 2223
L2C Translations Evicting Translations 465
L2C Data Evicting Translations 27940
L2C Dense regions hint from L2: 0
PSCL5 TOTAL     ACCESS:      66226  HIT:      66226  MISS:          0  HIT %:        100  MISS %:          0   MPKI: 0
PSCL5 LOAD TRANSLATION ACCESS:      65153  HIT:      65153  MISS:          0  HIT %:        100  MISS %:          0   MPKI: 0
PSCL5 TRANSLATION FROM L1D PREFETCHER ACCESS:       1073  HIT:       1073  MISS:          0  HIT %:        100  MISS %:          0   MPKI: 0
PSCL5prefetch_cycle_count: 0 prefetches_per_prefetch_cycle: -nan
PSCL5 PREFETCH  REQUESTED:          0  ISSUED:          0  USEFUL:          0  USELESS:          0
PSCL5 USEFUL LOAD PREFETCHES:          0 PREFETCH ISSUED TO LOWER LEVEL:          0  ACCURACY: -nan
PSCL5 TIMELY PREFETCHES:          0 LATE PREFETCHES: 0 DROPPED PREFETCHES: 0
PSCL5 PREFETCHES SAME FILL-ORIGIN LEVEL: 0 DIFFERENT FILL-ORIGIN LEVEL: 0

PSCL4 TOTAL     ACCESS:      65091  HIT:      64978  MISS:        113  HIT %:    99.8264  MISS %:   0.173603   MPKI: 0.00226
PSCL4 LOAD TRANSLATION ACCESS:      64091  HIT:      63978  MISS:        113  HIT %:    99.8237  MISS %:   0.176312   MPKI: 0.00226
PSCL4 TRANSLATION FROM L1D PREFETCHER ACCESS:       1000  HIT:       1000  MISS:          0  HIT %:        100  MISS %:          0   MPKI: 0
PSCL4prefetch_cycle_count: 0 prefetches_per_prefetch_cycle: -nan
PSCL4 PREFETCH  REQUESTED:          0  ISSUED:          0  USEFUL:          0  USELESS:          0
PSCL4 USEFUL LOAD PREFETCHES:          0 PREFETCH ISSUED TO LOWER LEVEL:          0  ACCURACY: -nan
PSCL4 TIMELY PREFETCHES:          0 LATE PREFETCHES: 0 DROPPED PREFETCHES: 0
PSCL4 PREFETCHES SAME FILL-ORIGIN LEVEL: 0 DIFFERENT FILL-ORIGIN LEVEL: 0

PSCL3 TOTAL     ACCESS:      65875  HIT:      65404  MISS:        471  HIT %:     99.285  MISS %:   0.714991   MPKI: 0.00942
PSCL3 LOAD TRANSLATION ACCESS:      64936  HIT:      64465  MISS:        471  HIT %:    99.2747  MISS %:    0.72533   MPKI: 0.00942
PSCL3 TRANSLATION FROM L1D PREFETCHER ACCESS:        939  HIT:        939  MISS:          0  HIT %:        100  MISS %:          0   MPKI: 0
PSCL3prefetch_cycle_count: 0 prefetches_per_prefetch_cycle: -nan
PSCL3 PREFETCH  REQUESTED:          0  ISSUED:          0  USEFUL:          0  USELESS:          0
PSCL3 USEFUL LOAD PREFETCHES:          0 PREFETCH ISSUED TO LOWER LEVEL:          0  ACCURACY: -nan
PSCL3 TIMELY PREFETCHES:          0 LATE PREFETCHES: 0 DROPPED PREFETCHES: 0
PSCL3 PREFETCHES SAME FILL-ORIGIN LEVEL: 0 DIFFERENT FILL-ORIGIN LEVEL: 0

PSCL2 TOTAL     ACCESS:      66146  HIT:      40159  MISS:      25987  HIT %:    60.7127  MISS %:    39.2873   MPKI: 0.51974
PSCL2 LOAD TRANSLATION ACCESS:      65499  HIT:      39512  MISS:      25987  HIT %:    60.3246  MISS %:    39.6754   MPKI: 0.51974
PSCL2 TRANSLATION FROM L1D PREFETCHER ACCESS:        647  HIT:        647  MISS:          0  HIT %:        100  MISS %:          0   MPKI: 0
PSCL2prefetch_cycle_count: 0 prefetches_per_prefetch_cycle: -nan
PSCL2 PREFETCH  REQUESTED:          0  ISSUED:          0  USEFUL:          0  USELESS:          0
PSCL2 USEFUL LOAD PREFETCHES:          0 PREFETCH ISSUED TO LOWER LEVEL:          0  ACCURACY: -nan
PSCL2 TIMELY PREFETCHES:          0 LATE PREFETCHES: 0 DROPPED PREFETCHES: 0
PSCL2 PREFETCHES SAME FILL-ORIGIN LEVEL: 0 DIFFERENT FILL-ORIGIN LEVEL: 0

LLC TOTAL     ACCESS:    2966001  HIT:     922447  MISS:    2043554  HIT %:    31.1007  MISS %:    68.8993   MPKI: 40.8711
LLC LOAD      ACCESS:     423045  HIT:     212726  MISS:     210319  HIT %:    50.2845  MISS %:    49.7155   MPKI: 4.20638
LLC RFO       ACCESS:     881711  HIT:     210508  MISS:     671203  HIT %:    23.8749  MISS %:    76.1251   MPKI: 13.4241
LLC PREFETCH  ACCESS:     538881  HIT:     140455  MISS:     398426  HIT %:    26.0642  MISS %:    73.9358   MPKI: 7.96852
LLC WRITEBACK ACCESS:    1091117  HIT:     350429  MISS:     740688  HIT %:    32.1165  MISS %:    67.8835   MPKI: 14.8138
LLC LOAD TRANSLATION ACCESS:      30232  HIT:       8017  MISS:      22215  HIT %:    26.5183  MISS %:    73.4817   MPKI: 0.4443
LLC TRANSLATION FROM L1D PREFETCHER ACCESS:       1015  HIT:        312  MISS:        703  HIT %:    30.7389  MISS %:    69.2611   MPKI: 0.01406
LLCprefetch_cycle_count: 0 prefetches_per_prefetch_cycle: -nan
LLC PREFETCH  REQUESTED:          0  ISSUED:          0  USEFUL:        828  USELESS:     397088
LLC USEFUL LOAD PREFETCHES:        828 PREFETCH ISSUED TO LOWER LEVEL:     398426  ACCURACY: 0.207818
LLC TIMELY PREFETCHES:        828 LATE PREFETCHES: 0 DROPPED PREFETCHES: 0
LLC PREFETCHES SAME FILL-ORIGIN LEVEL: 0 DIFFERENT FILL-ORIGIN LEVEL: 0
LLC AVERAGE MISS LATENCY: 141.926 cycles
LLC RQ	ACCESS:    1336004	FORWARD:          0	MERGED:          0	TO_CACHE:    1336003
LLC WQ	ACCESS:    1091117	FORWARD:          1	MERGED:          0	TO_CACHE:    1091117
LLC PQ	ACCESS:     538881	FORWARD:          0	MERGED:          0	TO_CACHE:     538881

LLC Dense regions hint to LLC: 0

RAW hits: 1304609
Loads Generated: 11983945
Loads sent to L1D: 10679336
Stores Generated: 8106873
Stores sent to L1D: 8106889
Major fault: 0 Minor fault: 25901
Allocated PAGES: 25901
I-Shadow cache 408 bytes
Touched + WorthPF tables 6144 bytes 
MMA filter 174 bytes 
FNL filter 272 bytes 
TOTAL PREFETCHER STORAGE SIZE: 25174 bytes
CPU 0 L1I next line prefetcher final stats

total_pref_operate_instances_l1: 2118705
dynamic_config_counter_instances_1: 517520
dynamic_config_counter_instances_2: 5865
dynamic_config_counter_instances_3: 5815
dynamic_config_counter_instances_4: 3906
dynamic_config_counter_instances_5: 1585599
stream: 
stream:times selected: 1524883
stream:pref_filled: 62690
stream:pref_useful: 19992
stream:pref_late: 3981
stream:misses: 4203
stream:misses_by_poll: 0

CS: 
CS:times selected: 1278212
CS:pref_filled: 289492
CS:pref_useful: 268992
CS:pref_late: 5276
CS:misses: 13864
CS:misses_by_poll: 2640

CPLX: 
CPLX:times selected: 243891
CPLX:pref_filled: 12160
CPLX:pref_useful: 718
CPLX:pref_late: 68
CPLX:misses: 61662
CPLX:misses_by_poll: 7

NL_L1: 
NL:times selected: 84990
NL:pref_filled: 35282
NL:pref_useful: 948
NL:pref_late: 745
NL:misses: 51792
NL:misses_by_poll: 165

total selections: 3131976
total_filled: 388404
total_useful: 284382
total_late: 10844
total_polluted: 2812
total_misses_after_warmup: 167261
conflicts: 119164
Degree Incremented Times: 7787
Degree Decremented Times: 10772

L1 IP Table Write Accesses: 1963745
L1 IP Table Read Accesses: 1844581
L1 RST Write Accesses: 1515889
L1 RST Read Accesses: 3031778
L1 CSPT Write Accesses: 1515889
L1 CSPT Read Accesses: 1754085
L1 RR Filter Tag Write Accesses: 678135
L1 RR Filter Tag Read Accesses: 319031989
L1 IP Table Tag Write Accesses: 2118705
L1 IP Table Tag Read Accesses: 2118705
L1 RST Tag Write Accesses: 0
L1 RST Tag Read Accesses: 13690496
L1 RR Filter Write Accesses: 0
L1 RR Filter Read Accesses: 10834786
test: 200561
total_pref_operate_instances_l2: 3037356
dynamic_config_counter_instances_l2_1: 3028774
dynamic_config_counter_instances_l2_2: 5197
dynamic_config_counter_instances_l2_3: 3385
dynamic_config_counter_instances_l2_4: 0
dynamic_config_counter_instances_l2_5: 0
L2 IP Table Read Accesses: 3442328
L2 IP Table Write Accesses: 5936139
L2 IP Table Tag Read Accesses: 3037356
L2 IP Table Tag Write Accesses: 3037356

DRAM Statistics
 CHANNEL 0
 RQ ROW_BUFFER_HIT:     469015  ROW_BUFFER_MISS:     833759
 DBUS_CONGESTED:        581
 WQ ROW_BUFFER_HIT:     191919  ROW_BUFFER_MISS:     588335  FULL:      11719

 AVG_CONGESTED_CYCLE: 3
 All warmup complete: 2
Channel 0 Bank busy for read cycles: 0
Channel 0 Bank busy for write cycles: 0
Channel 0
Rank 0
0banks busy for read cycles: 20954675
0banks busy for write cycles: 51627
1banks busy for read cycles: 22594325
1banks busy for write cycles: 8150138
2banks busy for read cycles: 14394652
2banks busy for write cycles: 5150918
3banks busy for read cycles: 6570388
3banks busy for write cycles: 3524730
4banks busy for read cycles: 3922878
4banks busy for write cycles: 2609864
5banks busy for read cycles: 1327344
5banks busy for write cycles: 1968269
6banks busy for read cycles: 1163078
6banks busy for write cycles: 1652076
7banks busy for read cycles: 1503502
7banks busy for write cycles: 2267198
8banks busy for read cycles: 4980763
8banks busy for write cycles: 10137462

CPU 0 Branch Prediction Accuracy: 99.2186% MPKI: 1.32192 Average ROB Occupancy at Mispredict: 136.303
Branch types
NOT_BRANCH: 41540785 83.0816%
BRANCH_DIRECT_JUMP: 462384 0.924768%
BRANCH_INDIRECT: 45460 0.09092%
BRANCH_CONDITIONAL: 6209281 12.4186%
BRANCH_DIRECT_CALL: 666241 1.33248%
BRANCH_INDIRECT_CALL: 204728 0.409456%
BRANCH_RETURN: 870978 1.74196%
BRANCH_OTHER: 0 0%

DRAM PAGES: 1048576
Allocated PAGES: 25901
