
*** ChampSim Multicore Out-of-Order Simulator ***

Warmup Instructions: 50000000
Simulation Instructions: 50000000
Number of CPUs: 1
LLC sets: 2048
LLC ways: 16
Off-chip DRAM Size: 4096 MB Channels: 1 Width: 64-bit Data Rate: 6400 MT/s
CPU 0 runs ../IPC-traces//server_032.champsimtrace.xz
.xz
NUM_OF_IPS_IN_CRITICAL_IP_TRAINING: 64
NUM_OF_CRITICAL_IP_TRAINING_TABLE_WAYS: 2
NUM_OF_CRITICAL_IP_TRAINING_TABLE_SETS: 32
WOBBLY_CRITICAL_IP_CACHE_SETS: 32
WOBBLY_CRITICAL_IP_CACHE_WAYS: 4
BTB has LRU replacement policy
ITLB has LRU replacement policy
DTLB has LRU replacement policy
STLB has LRU replacement policy
CPU 0 L1I next line prefetcher
L1I has LRU replacement policy
L1D has LRU replacement policy
Bingo PHT WAYS: 16 and PHT_SIZE: 16384
Initialize SRRIP state for L2C
Initialize DRRIP state for LLC
Heartbeat CPU 0 instructions: 10000002 cycles: 2874600 heartbeat IPC: 3.47875 cumulative IPC: 3.47875 (Simulation time: 0 hr 3 min 29 sec) 
Heartbeat CPU 0 instructions: 20000003 cycles: 5746515 heartbeat IPC: 3.482 cumulative IPC: 3.48037 (Simulation time: 0 hr 6 min 20 sec) 
Heartbeat CPU 0 instructions: 30000000 cycles: 8617439 heartbeat IPC: 3.4832 cumulative IPC: 3.48131 (Simulation time: 0 hr 9 min 2 sec) 
Heartbeat CPU 0 instructions: 40000000 cycles: 11489927 heartbeat IPC: 3.4813 cumulative IPC: 3.48131 (Simulation time: 0 hr 11 min 14 sec) 
Heartbeat CPU 0 instructions: 50000003 cycles: 14362028 heartbeat IPC: 3.48177 cumulative IPC: 3.4814 (Simulation time: 0 hr 13 min 18 sec) 

Warmup complete CPU 0 instructions: 50000003 cycles: 14362028 (Simulation time: 0 hr 13 min 18 sec) 

% increase in all ip prefetch 396.429
% increase in all ip prefetch -0.0580783
Heartbeat CPU 0 instructions: 60000000 cycles: 29920274 heartbeat IPC: 0.642746 cumulative IPC: 0.642746 (Simulation time: 0 hr 15 min 42 sec) 
Heartbeat CPU 0 instructions: 70000001 cycles: 45449382 heartbeat IPC: 0.643952 cumulative IPC: 0.643348 (Simulation time: 0 hr 18 min 6 sec) 
*** Reached end of trace for Core: 0 Repeating trace: ../IPC-traces//server_032.champsimtrace.xz
Heartbeat CPU 0 instructions: 80000003 cycles: 60963718 heartbeat IPC: 0.644565 cumulative IPC: 0.643753 (Simulation time: 0 hr 20 min 28 sec) 
Heartbeat CPU 0 instructions: 90000002 cycles: 76465746 heartbeat IPC: 0.645077 cumulative IPC: 0.644084 (Simulation time: 0 hr 22 min 52 sec) 
Heartbeat CPU 0 instructions: 100000001 cycles: 91980184 heartbeat IPC: 0.644561 cumulative IPC: 0.644179 (Simulation time: 0 hr 26 min 28 sec) 
Finished CPU 0 instructions: 50000003 cycles: 77618170 cumulative IPC: 0.644179 (Simulation time: 0 hr 26 min 28 sec) 

ChampSim completed all CPUs

Region of Interest Statistics

CPU 0 cumulative IPC: 0.644179 instructions: 50000003 cycles: 77618170

CPU 0 Average Load ROB stall cycles: 1.85797e+07
CPU 0 Fraction of times ROB stalled by Loads: 34.9311
CPU 0 Percentage of Load stall cycles in Total stall cycles: 2.80085e+08
Issued all: 27817511
Issued LT all: 22008416
rob_not_full_when_issued_lt_all: 21993156
Issued LT one: 17035165
rob_not_full_when_issued_lt_one: 17023448
 Total stall cycles: 65370803
 Total load stall cycles: 183094109733166
CPU 0 NUM of IPS identified critical: 0
CPU 0 Num of Load IPs stalling ROB: 8146
Threshold modification factor: -1
Max PIST entries: 64
Min PIST entries: 0
Avg PIST entries: 32
Trouble in retire width: 0.894166
MaC = Marked as critical.
lt_50_percent_before_Mac: 0
gt_90_percent_before_Mac: 0
gt_75_percent_before_Mac: 0
gt_50_percent_before_Mac: 0
stall_proportion_bin_same_before_after: 0
stall_proportion_bin_lower_before_after: 0
stall_proportion_bin_upper_before_after: 0
average_stall_proportion_before: -nan
average_stall_proportion_after: -nan
Critical IP stalls, total frequency: 0
Non-critical IP stalls, total frequency: 3442288
Total Freq all stalling IPs: 3442288
stat_90_percent_critical_ip_stalls_freq: 3098765
stat_90_percent_non_critical_ip_stalls_freq: 343523
Critical_IP_ROB_Stalls_Bucket_0: 0
Non-critical_IP_ROB_Stalls_Bucket_0: 2488742
Critical_IP_ROB_Stalls_Bucket_1: 0
Non-critical_IP_ROB_Stalls_Bucket_1: 732582
Critical_IP_ROB_Stalls_Bucket_2: 0
Non-critical_IP_ROB_Stalls_Bucket_2: 173367
Critical_IP_ROB_Stalls_Bucket_3: 0
Non-critical_IP_ROB_Stalls_Bucket_3: 30757
Critical_IP_ROB_Stalls_Bucket_4: 0
Non-critical_IP_ROB_Stalls_Bucket_4: 10024
Critical_IP_ROB_Stalls_Bucket_5: 0
Non-critical_IP_ROB_Stalls_Bucket_5: 4080
Critical_IP_ROB_Stalls_Bucket_6: 0
Non-critical_IP_ROB_Stalls_Bucket_6: 2736
0 => IPs accounting for >50 percent of stalls, 1 => 55, 2 => 60, 3 => 65 and so on till 90.
percent50: 50.0093 num IPs:  525
percent55: 55.0044 num IPs: 720
percent60: 60.0004 num IPs: 917
percent65: 65.0163 num IPs: 1115
percent70: 70.0063 num IPs: 1312
percent75: 75.0161 num IPs: 1510
percent80: 80.0007 num IPs: 1709
percent85: 85.0189 num IPs: 1914
percent90: 90.0197 num IPs: 2131
Critical_ROB_Stalls_Percent_0_Bucket_0: 1073646
Non-critical_ROB_Stalls_Percent_0_Bucket_0: 1415096
Critical_ROB_Stalls_Percent_0_Bucket_1: 468611
Non-critical_ROB_Stalls_Percent_0_Bucket_1: 263971
Critical_ROB_Stalls_Percent_0_Bucket_2: 136320
Non-critical_ROB_Stalls_Percent_0_Bucket_2: 37047
Critical_ROB_Stalls_Percent_0_Bucket_3: 27531
Non-critical_ROB_Stalls_Percent_0_Bucket_3: 3226
Critical_ROB_Stalls_Percent_0_Bucket_4: 9526
Non-critical_ROB_Stalls_Percent_0_Bucket_4: 498
Critical_ROB_Stalls_Percent_0_Bucket_5: 3545
Non-critical_ROB_Stalls_Percent_0_Bucket_5: 535
Critical_ROB_Stalls_Percent_0_Bucket_6: 2291
Non-critical_ROB_Stalls_Percent_0_Bucket_6: 445
Critical_ROB_Stalls_Percent_1_Bucket_0: 1200928
Non-critical_ROB_Stalls_Percent_1_Bucket_0: 1287814
Critical_ROB_Stalls_Percent_1_Bucket_1: 504377
Non-critical_ROB_Stalls_Percent_1_Bucket_1: 228205
Critical_ROB_Stalls_Percent_1_Bucket_2: 144719
Non-critical_ROB_Stalls_Percent_1_Bucket_2: 28648
Critical_ROB_Stalls_Percent_1_Bucket_3: 28034
Non-critical_ROB_Stalls_Percent_1_Bucket_3: 2723
Critical_ROB_Stalls_Percent_1_Bucket_4: 9526
Non-critical_ROB_Stalls_Percent_1_Bucket_4: 498
Critical_ROB_Stalls_Percent_1_Bucket_5: 3545
Non-critical_ROB_Stalls_Percent_1_Bucket_5: 535
Critical_ROB_Stalls_Percent_1_Bucket_6: 2291
Non-critical_ROB_Stalls_Percent_1_Bucket_6: 445
Critical_ROB_Stalls_Percent_2_Bucket_0: 1320720
Non-critical_ROB_Stalls_Percent_2_Bucket_0: 1168022
Critical_ROB_Stalls_Percent_2_Bucket_1: 550453
Non-critical_ROB_Stalls_Percent_2_Bucket_1: 182129
Critical_ROB_Stalls_Percent_2_Bucket_2: 150696
Non-critical_ROB_Stalls_Percent_2_Bucket_2: 22671
Critical_ROB_Stalls_Percent_2_Bucket_3: 28168
Non-critical_ROB_Stalls_Percent_2_Bucket_3: 2589
Critical_ROB_Stalls_Percent_2_Bucket_4: 9528
Non-critical_ROB_Stalls_Percent_2_Bucket_4: 496
Critical_ROB_Stalls_Percent_2_Bucket_5: 3545
Non-critical_ROB_Stalls_Percent_2_Bucket_5: 535
Critical_ROB_Stalls_Percent_2_Bucket_6: 2291
Non-critical_ROB_Stalls_Percent_2_Bucket_6: 445
Critical_ROB_Stalls_Percent_3_Bucket_0: 1463829
Non-critical_ROB_Stalls_Percent_3_Bucket_0: 1024913
Critical_ROB_Stalls_Percent_3_Bucket_1: 577765
Non-critical_ROB_Stalls_Percent_3_Bucket_1: 154817
Critical_ROB_Stalls_Percent_3_Bucket_2: 152932
Non-critical_ROB_Stalls_Percent_3_Bucket_2: 20435
Critical_ROB_Stalls_Percent_3_Bucket_3: 28168
Non-critical_ROB_Stalls_Percent_3_Bucket_3: 2589
Critical_ROB_Stalls_Percent_3_Bucket_4: 9528
Non-critical_ROB_Stalls_Percent_3_Bucket_4: 496
Critical_ROB_Stalls_Percent_3_Bucket_5: 3545
Non-critical_ROB_Stalls_Percent_3_Bucket_5: 535
Critical_ROB_Stalls_Percent_3_Bucket_6: 2293
Non-critical_ROB_Stalls_Percent_3_Bucket_6: 443
Critical_ROB_Stalls_Percent_4_Bucket_0: 1602109
Non-critical_ROB_Stalls_Percent_4_Bucket_0: 886633
Critical_ROB_Stalls_Percent_4_Bucket_1: 608884
Non-critical_ROB_Stalls_Percent_4_Bucket_1: 123698
Critical_ROB_Stalls_Percent_4_Bucket_2: 155317
Non-critical_ROB_Stalls_Percent_4_Bucket_2: 18050
Critical_ROB_Stalls_Percent_4_Bucket_3: 28168
Non-critical_ROB_Stalls_Percent_4_Bucket_3: 2589
Critical_ROB_Stalls_Percent_4_Bucket_4: 9528
Non-critical_ROB_Stalls_Percent_4_Bucket_4: 496
Critical_ROB_Stalls_Percent_4_Bucket_5: 3545
Non-critical_ROB_Stalls_Percent_4_Bucket_5: 535
Critical_ROB_Stalls_Percent_4_Bucket_6: 2293
Non-critical_ROB_Stalls_Percent_4_Bucket_6: 443
Critical_ROB_Stalls_Percent_5_Bucket_0: 1751228
Non-critical_ROB_Stalls_Percent_5_Bucket_0: 737514
Critical_ROB_Stalls_Percent_5_Bucket_1: 629593
Non-critical_ROB_Stalls_Percent_5_Bucket_1: 102989
Critical_ROB_Stalls_Percent_5_Bucket_2: 157942
Non-critical_ROB_Stalls_Percent_5_Bucket_2: 15425
Critical_ROB_Stalls_Percent_5_Bucket_3: 28168
Non-critical_ROB_Stalls_Percent_5_Bucket_3: 2589
Critical_ROB_Stalls_Percent_5_Bucket_4: 9528
Non-critical_ROB_Stalls_Percent_5_Bucket_4: 496
Critical_ROB_Stalls_Percent_5_Bucket_5: 3545
Non-critical_ROB_Stalls_Percent_5_Bucket_5: 535
Critical_ROB_Stalls_Percent_5_Bucket_6: 2293
Non-critical_ROB_Stalls_Percent_5_Bucket_6: 443
Critical_ROB_Stalls_Percent_6_Bucket_0: 1904156
Non-critical_ROB_Stalls_Percent_6_Bucket_0: 584586
Critical_ROB_Stalls_Percent_6_Bucket_1: 645084
Non-critical_ROB_Stalls_Percent_6_Bucket_1: 87498
Critical_ROB_Stalls_Percent_6_Bucket_2: 160441
Non-critical_ROB_Stalls_Percent_6_Bucket_2: 12926
Critical_ROB_Stalls_Percent_6_Bucket_3: 28791
Non-critical_ROB_Stalls_Percent_6_Bucket_3: 1966
Critical_ROB_Stalls_Percent_6_Bucket_4: 9575
Non-critical_ROB_Stalls_Percent_6_Bucket_4: 449
Critical_ROB_Stalls_Percent_6_Bucket_5: 3545
Non-critical_ROB_Stalls_Percent_6_Bucket_5: 535
Critical_ROB_Stalls_Percent_6_Bucket_6: 2293
Non-critical_ROB_Stalls_Percent_6_Bucket_6: 443
Critical_ROB_Stalls_Percent_7_Bucket_0: 2053010
Non-critical_ROB_Stalls_Percent_7_Bucket_0: 435732
Critical_ROB_Stalls_Percent_7_Bucket_1: 666846
Non-critical_ROB_Stalls_Percent_7_Bucket_1: 65736
Critical_ROB_Stalls_Percent_7_Bucket_2: 162357
Non-critical_ROB_Stalls_Percent_7_Bucket_2: 11010
Critical_ROB_Stalls_Percent_7_Bucket_3: 28999
Non-critical_ROB_Stalls_Percent_7_Bucket_3: 1758
Critical_ROB_Stalls_Percent_7_Bucket_4: 9576
Non-critical_ROB_Stalls_Percent_7_Bucket_4: 448
Critical_ROB_Stalls_Percent_7_Bucket_5: 3545
Non-critical_ROB_Stalls_Percent_7_Bucket_5: 535
Critical_ROB_Stalls_Percent_7_Bucket_6: 2293
Non-critical_ROB_Stalls_Percent_7_Bucket_6: 443
Critical_ROB_Stalls_Percent_8_Bucket_0: 2210321
Non-critical_ROB_Stalls_Percent_8_Bucket_0: 278421
Critical_ROB_Stalls_Percent_8_Bucket_1: 680147
Non-critical_ROB_Stalls_Percent_8_Bucket_1: 52435
Critical_ROB_Stalls_Percent_8_Bucket_2: 163694
Non-critical_ROB_Stalls_Percent_8_Bucket_2: 9673
Critical_ROB_Stalls_Percent_8_Bucket_3: 29124
Non-critical_ROB_Stalls_Percent_8_Bucket_3: 1633
Critical_ROB_Stalls_Percent_8_Bucket_4: 9595
Non-critical_ROB_Stalls_Percent_8_Bucket_4: 429
Critical_ROB_Stalls_Percent_8_Bucket_5: 3565
Non-critical_ROB_Stalls_Percent_8_Bucket_5: 515
Critical_ROB_Stalls_Percent_8_Bucket_6: 2319
Non-critical_ROB_Stalls_Percent_8_Bucket_6: 417
Average ROB occupancy Load Stall Begin: 32.8401
Average ROB occupancy Load Stall End: 40.994
Min ROB occupancy Load Stall Begin: 1
Max ROB occupancy Load Stall Begin: 352
Min ROB occupancy Load Stall End: 1
Max ROB occupancy Load Stall End: 352
Average ROB occupancy Critical Load Stall Begin: -nan
Average ROB occupancy Critical Load Stall End: -nan
Min ROB occupancy Critical Load Stall Begin: 400
Max ROB occupancy Critical Load Stall Begin: 0
Min ROB occupancy Critical Load Stall End: 400
Max ROB occupancy Critical Load Stall End: 0
 ROB Load Stall Begin Bucket Count 0: 2759663
 ROB Load Stall End Bucket Count 0: 2488742
 ROB Critical Load Stall Begin Bucket Count 0: 0
 ROB Critical Load Stall End Bucket Count 0: 0
 ROB Load Stall Begin Bucket Count 1: 527254
 ROB Load Stall End Bucket Count 1: 732582
 ROB Critical Load Stall Begin Bucket Count 1: 0
 ROB Critical Load Stall End Bucket Count 1: 0
 ROB Load Stall Begin Bucket Count 2: 117826
 ROB Load Stall End Bucket Count 2: 173367
 ROB Critical Load Stall Begin Bucket Count 2: 0
 ROB Critical Load Stall End Bucket Count 2: 0
 ROB Load Stall Begin Bucket Count 3: 23078
 ROB Load Stall End Bucket Count 3: 30757
 ROB Critical Load Stall Begin Bucket Count 3: 0
 ROB Critical Load Stall End Bucket Count 3: 0
 ROB Load Stall Begin Bucket Count 4: 9026
 ROB Load Stall End Bucket Count 4: 10024
 ROB Critical Load Stall Begin Bucket Count 4: 0
 ROB Critical Load Stall End Bucket Count 4: 0
 ROB Load Stall Begin Bucket Count 5: 3666
 ROB Load Stall End Bucket Count 5: 4080
 ROB Critical Load Stall Begin Bucket Count 5: 0
 ROB Critical Load Stall End Bucket Count 5: 0
 ROB Load Stall Begin Bucket Count 6: 1775
 ROB Load Stall End Bucket Count 6: 2736
 ROB Critical Load Stall Begin Bucket Count 6: 0
 ROB Critical Load Stall End Bucket Count 6: 0
PIST Tag Read Accesses: 2484088
PIST Read Accesses: 1242044
PIST Tag Write Accesses: 2484088
PIST Write Accesses: 1242044
Criticality detector called times: 3442288
Max global_stall_cycles_count: 1921236
Threshold Modified: 1 times, factor: -1
Sturdy critical IP cache stats: 
 Unused entries: 0
CIC Tag Read Accesses: 0
CIC Read Accesses: 0
CIC Tag Write Accesses: 0
CIC Write Accesses: 0
Wobbly critical IP cache stats: 
 Unused entries: 128
CIC Tag Read Accesses: 85643388
CIC Read Accesses: 0
CIC Tag Write Accesses: 0
CIC Write Accesses: 0
ITLB TOTAL     ACCESS:   10451349  HIT:    9692075  MISS:     759274  HIT %:    92.7352  MISS %:    7.26484   MPKI: 15.1855
ITLB LOAD TRANSLATION ACCESS:    8196988  HIT:    8151889  MISS:      45099  HIT %:    99.4498  MISS %:    0.55019   MPKI: 0.90198
ITLB TRANSLATION FROM L1D PREFETCHER ACCESS:    2254361  HIT:    1540186  MISS:     714175  HIT %:    68.3203  MISS %:    31.6797   MPKI: 14.2835
ITLB PREFETCH  REQUESTED:          0  ISSUED:          0  USEFUL:     601455  USELESS:     112723
ITLB USEFUL LOAD PREFETCHES:     601455 PREFETCH ISSUED TO LOWER LEVEL:          0  ACCURACY: inf
ITLB TIMELY PREFETCHES:     601455 LATE PREFETCHES: 0 DROPPED PREFETCHES: 6980
ITLB PREFETCHES SAME FILL-ORIGIN LEVEL: 0 DIFFERENT FILL-ORIGIN LEVEL: 0
ITLB AVERAGE MISS LATENCY: 9.02594 cycles
ITLB RQ	ACCESS:   16128267	FORWARD:          0	MERGED:    5627071	TO_CACHE:   10501196

DTLB TOTAL     ACCESS:   11658245  HIT:   11147631  MISS:     510614  HIT %:    95.6201  MISS %:    4.37985   MPKI: 10.2123
DTLB LOAD TRANSLATION ACCESS:   11658245  HIT:   11147631  MISS:     510614  HIT %:    95.6201  MISS %:    4.37985   MPKI: 10.2123
DTLB PREFETCH  REQUESTED:          0  ISSUED:          0  USEFUL:          0  USELESS:          0
DTLB USEFUL LOAD PREFETCHES:          0 PREFETCH ISSUED TO LOWER LEVEL:          0  ACCURACY: -nan
DTLB TIMELY PREFETCHES:          0 LATE PREFETCHES: 0 DROPPED PREFETCHES: 0
DTLB PREFETCHES SAME FILL-ORIGIN LEVEL: 0 DIFFERENT FILL-ORIGIN LEVEL: 0
DTLB AVERAGE MISS LATENCY: 9.05068 cycles
DTLB RQ	ACCESS:   15259971	FORWARD:          0	MERGED:    3579976	TO_CACHE:   11679995

STLB TOTAL     ACCESS:    1269888  HIT:    1269584  MISS:        304  HIT %:    99.9761  MISS %:  0.0239391   MPKI: 0.00608
STLB LOAD TRANSLATION ACCESS:     555713  HIT:     555409  MISS:        304  HIT %:    99.9453  MISS %:  0.0547045   MPKI: 0.00608
STLB TRANSLATION FROM L1D PREFETCHER ACCESS:     714175  HIT:     714175  MISS:          0  HIT %:        100  MISS %:          0   MPKI: 0
STLB PREFETCH  REQUESTED:          0  ISSUED:          0  USEFUL:          0  USELESS:          0
STLB USEFUL LOAD PREFETCHES:          0 PREFETCH ISSUED TO LOWER LEVEL:          0  ACCURACY: -nan
STLB TIMELY PREFETCHES:          0 LATE PREFETCHES: 0 DROPPED PREFETCHES: 6980
STLB PREFETCHES SAME FILL-ORIGIN LEVEL: 0 DIFFERENT FILL-ORIGIN LEVEL: 0
STLB AVERAGE MISS LATENCY: 29.6382 cycles
STLB RQ	ACCESS:    1276868	FORWARD:          0	MERGED:          0	TO_CACHE:    1276868

STLB Hit, L1D data hit: 0
STLB Hit, L2C data hit: 0
STLB Hit, LLC data hit: 0
STLB Hit, LLC data miss: 0
STLB STLB hints to L2: 0
L1D TOTAL     ACCESS:   14757167  HIT:   13622069  MISS:    1135098  HIT %:    92.3082  MISS %:    7.69184   MPKI: 22.702
L1D LOAD      ACCESS:    8070119  HIT:    7234415  MISS:     835704  HIT %:    89.6445  MISS %:    10.3555   MPKI: 16.7141
L1D RFO       ACCESS:    6687048  HIT:    6387654  MISS:     299394  HIT %:    95.5228  MISS %:    4.47722   MPKI: 5.98788
L1D PREFETCH  REQUESTED:          0  ISSUED:          0  USEFUL:          0  USELESS:          0
L1D USEFUL LOAD PREFETCHES:          0 PREFETCH ISSUED TO LOWER LEVEL:          0  ACCURACY: -nan
L1D TIMELY PREFETCHES:          0 LATE PREFETCHES: 0 DROPPED PREFETCHES: 0
L1D PREFETCHES SAME FILL-ORIGIN LEVEL: 0 DIFFERENT FILL-ORIGIN LEVEL: 0
L1D AVERAGE MISS LATENCY: 16.3972 cycles
L1D RQ	ACCESS:   11482739	FORWARD:          0	MERGED:    3223852	TO_CACHE:    8098769
L1D WQ	ACCESS:    7236333	FORWARD:     160118	MERGED:      75131	TO_CACHE:    7161202

L1D UNIQUE REGIONS ACCESSED: 0
L1D REGIONS CONFLICTS: 0
L1D Cross Page Prefetch Requests: 0
L1D Same Page Prefetch Requests: 0
L1D ROI Sum of L1D PQ occupancy: 0
L1D PREFETCHES PUSHED FROM L2C: 0
L1I TOTAL     ACCESS:   16060790  HIT:   11685623  MISS:    4375167  HIT %:    72.7587  MISS %:    27.2413   MPKI: 87.5033
L1I LOAD      ACCESS:    9754404  HIT:    9725706  MISS:      28698  HIT %:    99.7058  MISS %:   0.294206   MPKI: 0.57396
L1I PREFETCH  ACCESS:    6306386  HIT:    1959917  MISS:    4346469  HIT %:    31.0783  MISS %:    68.9217   MPKI: 86.9294
L1I PREFETCH  REQUESTED:    6502591  ISSUED:    6489517  USEFUL:    3254033  USELESS:    1092441
L1I USEFUL LOAD PREFETCHES:    3254033 PREFETCH ISSUED TO LOWER LEVEL:    4365178  ACCURACY: 74.5453
L1I TIMELY PREFETCHES:    3254033 LATE PREFETCHES: 11791 DROPPED PREFETCHES: 16581
L1I PREFETCHES SAME FILL-ORIGIN LEVEL: 4365178 DIFFERENT FILL-ORIGIN LEVEL: 0
L1I AVERAGE MISS LATENCY: 146134 cycles
L1I RQ	ACCESS:   13693855	FORWARD:          0	MERGED:    3934937	TO_CACHE:    9758918
L1I PQ	ACCESS:    6489517	FORWARD:          0	MERGED:     120168	TO_CACHE:    6369349

BTB TOTAL     ACCESS:    5868586  HIT:    3860324  MISS:    2008262  HIT %:    65.7795  MISS %:    34.2205   MPKI: 40.1652
BTB BRANCH_DIRECT_JUMP	ACCESS:     508368  HIT:     346588  MISS:     161780
BTB BRANCH_INDIRECT	ACCESS:     180051  HIT:     143281  MISS:      36770
BTB BRANCH_CONDITIONAL	ACCESS:    2594502  HIT:    2045018  MISS:     549484
BTB BRANCH_DIRECT_CALL	ACCESS:    1086730  HIT:     694535  MISS:     392195
BTB BRANCH_INDIRECT_CALL	ACCESS:     206109  HIT:     130934  MISS:      75175
BTB BRANCH_RETURN	ACCESS:    1292826  HIT:     499968  MISS:     792858
BTB BRANCH_OTHER ACCESS:          0  HIT:          0  MISS:          0

L2C TOTAL     ACCESS:    6605513  HIT:    6294155  MISS:     311358  HIT %:    95.2864  MISS %:    4.71361   MPKI: 6.22716
L2C LOAD      ACCESS:     852559  HIT:     812363  MISS:      40196  HIT %:    95.2853  MISS %:    4.71475   MPKI: 0.80392
L2C DATA LOAD MPKI: 0.79858
L2C INSTRUCTION LOAD MPKI: 0.00534
L2C RFO       ACCESS:     299394  HIT:     290441  MISS:       8953  HIT %:    97.0096  MISS %:    2.99037   MPKI: 0.17906
L2C PREFETCH  ACCESS:    4857704  HIT:    4603052  MISS:     254652  HIT %:    94.7578  MISS %:    5.24223   MPKI: 5.09304
L2C DATA PREFETCH MPKI: 1.02522
L2C INSTRUCTION PREFETCH MPKI: 4.06782
L2C WRITEBACK ACCESS:     588572  HIT:     581102  MISS:       7470  HIT %:    98.7308  MISS %:    1.26917   MPKI: 0.1494
L2C LOAD TRANSLATION ACCESS:        304  HIT:        219  MISS:         85  HIT %:    72.0395  MISS %:    27.9605   MPKI: 0.0017
L2C TRANSLATION FROM L1D PREFETCHER ACCESS:       6980  HIT:       6978  MISS:          2  HIT %:    99.9713  MISS %:  0.0286533   MPKI: 4e-05
L2C PREFETCH  REQUESTED:     502953  ISSUED:     502953  USEFUL:      18112  USELESS:     236263
L2C USEFUL LOAD PREFETCHES:      18112 PREFETCH ISSUED TO LOWER LEVEL:     256075  ACCURACY: 7.07293
L2C TIMELY PREFETCHES:      18112 LATE PREFETCHES: 1423 DROPPED PREFETCHES: 0
L2C PREFETCHES SAME FILL-ORIGIN LEVEL: 52684 DIFFERENT FILL-ORIGIN LEVEL: 0
L2C AVERAGE MISS LATENCY: 30.7655 cycles
L2C RQ	ACCESS:    1159289	FORWARD:          0	MERGED:          0	TO_CACHE:    1159237
L2C WQ	ACCESS:     588572	FORWARD:         54	MERGED:          0	TO_CACHE:     588572
L2C PQ	ACCESS:    4861213	FORWARD:          0	MERGED:          0	TO_CACHE:    4861211

L2C Instructions Evicting Data 41713
L2C Translations Evicting Data 79
L2C Data Evicting Data 63893
L2C Instructions Evicting Instructions 161945
L2C Translations Evicting Instructions 8
L2C Data Evicting Instructions 36165
L2C Instructions Evicting Translations 0
L2C Translations Evicting Translations 0
L2C Data Evicting Translations 85
L2C Dense regions hint from L2: 0
PSCL5 TOTAL     ACCESS:       7284  HIT:       7284  MISS:          0  HIT %:        100  MISS %:          0   MPKI: 0
PSCL5 LOAD TRANSLATION ACCESS:        304  HIT:        304  MISS:          0  HIT %:        100  MISS %:          0   MPKI: 0
PSCL5 TRANSLATION FROM L1D PREFETCHER ACCESS:       6980  HIT:       6980  MISS:          0  HIT %:        100  MISS %:          0   MPKI: 0
PSCL5 PREFETCH  REQUESTED:          0  ISSUED:          0  USEFUL:          0  USELESS:          0
PSCL5 USEFUL LOAD PREFETCHES:          0 PREFETCH ISSUED TO LOWER LEVEL:          0  ACCURACY: -nan
PSCL5 TIMELY PREFETCHES:          0 LATE PREFETCHES: 0 DROPPED PREFETCHES: 0
PSCL5 PREFETCHES SAME FILL-ORIGIN LEVEL: 0 DIFFERENT FILL-ORIGIN LEVEL: 0

PSCL4 TOTAL     ACCESS:       7284  HIT:       7284  MISS:          0  HIT %:        100  MISS %:          0   MPKI: 0
PSCL4 LOAD TRANSLATION ACCESS:        304  HIT:        304  MISS:          0  HIT %:        100  MISS %:          0   MPKI: 0
PSCL4 TRANSLATION FROM L1D PREFETCHER ACCESS:       6980  HIT:       6980  MISS:          0  HIT %:        100  MISS %:          0   MPKI: 0
PSCL4 PREFETCH  REQUESTED:          0  ISSUED:          0  USEFUL:          0  USELESS:          0
PSCL4 USEFUL LOAD PREFETCHES:          0 PREFETCH ISSUED TO LOWER LEVEL:          0  ACCURACY: -nan
PSCL4 TIMELY PREFETCHES:          0 LATE PREFETCHES: 0 DROPPED PREFETCHES: 0
PSCL4 PREFETCHES SAME FILL-ORIGIN LEVEL: 0 DIFFERENT FILL-ORIGIN LEVEL: 0

PSCL3 TOTAL     ACCESS:       7284  HIT:       7284  MISS:          0  HIT %:        100  MISS %:          0   MPKI: 0
PSCL3 LOAD TRANSLATION ACCESS:        304  HIT:        304  MISS:          0  HIT %:        100  MISS %:          0   MPKI: 0
PSCL3 TRANSLATION FROM L1D PREFETCHER ACCESS:       6980  HIT:       6980  MISS:          0  HIT %:        100  MISS %:          0   MPKI: 0
PSCL3 PREFETCH  REQUESTED:          0  ISSUED:          0  USEFUL:          0  USELESS:          0
PSCL3 USEFUL LOAD PREFETCHES:          0 PREFETCH ISSUED TO LOWER LEVEL:          0  ACCURACY: -nan
PSCL3 TIMELY PREFETCHES:          0 LATE PREFETCHES: 0 DROPPED PREFETCHES: 0
PSCL3 PREFETCHES SAME FILL-ORIGIN LEVEL: 0 DIFFERENT FILL-ORIGIN LEVEL: 0

PSCL2 TOTAL     ACCESS:       7284  HIT:       7284  MISS:          0  HIT %:        100  MISS %:          0   MPKI: 0
PSCL2 LOAD TRANSLATION ACCESS:        304  HIT:        304  MISS:          0  HIT %:        100  MISS %:          0   MPKI: 0
PSCL2 TRANSLATION FROM L1D PREFETCHER ACCESS:       6980  HIT:       6980  MISS:          0  HIT %:        100  MISS %:          0   MPKI: 0
PSCL2 PREFETCH  REQUESTED:          0  ISSUED:          0  USEFUL:          0  USELESS:          0
PSCL2 USEFUL LOAD PREFETCHES:          0 PREFETCH ISSUED TO LOWER LEVEL:          0  ACCURACY: -nan
PSCL2 TIMELY PREFETCHES:          0 LATE PREFETCHES: 0 DROPPED PREFETCHES: 0
PSCL2 PREFETCHES SAME FILL-ORIGIN LEVEL: 0 DIFFERENT FILL-ORIGIN LEVEL: 0

LLC TOTAL     ACCESS:     318219  HIT:     315253  MISS:       2966  HIT %:    99.0679  MISS %:   0.932063   MPKI: 0.05932
LLC LOAD      ACCESS:      38772  HIT:      38165  MISS:        607  HIT %:    98.4344  MISS %:    1.56556   MPKI: 0.01214
LLC RFO       ACCESS:       8953  HIT:       8952  MISS:          1  HIT %:    99.9888  MISS %:  0.0111694   MPKI: 2e-05
LLC PREFETCH  ACCESS:     256075  HIT:     253730  MISS:       2345  HIT %:    99.0843  MISS %:   0.915747   MPKI: 0.0469
LLC WRITEBACK ACCESS:      14332  HIT:      14320  MISS:         12  HIT %:    99.9163  MISS %:  0.0837287   MPKI: 0.00024
LLC LOAD TRANSLATION ACCESS:         85  HIT:         85  MISS:          0  HIT %:        100  MISS %:          0   MPKI: 0
LLC TRANSLATION FROM L1D PREFETCHER ACCESS:          2  HIT:          1  MISS:          1  HIT %:         50  MISS %:         50   MPKI: 2e-05
LLC PREFETCH  REQUESTED:          0  ISSUED:          0  USEFUL:       1812  USELESS:        489
LLC USEFUL LOAD PREFETCHES:       1812 PREFETCH ISSUED TO LOWER LEVEL:       2345  ACCURACY: 77.2708
LLC TIMELY PREFETCHES:       1812 LATE PREFETCHES: 0 DROPPED PREFETCHES: 0
LLC PREFETCHES SAME FILL-ORIGIN LEVEL: 0 DIFFERENT FILL-ORIGIN LEVEL: 0
LLC AVERAGE MISS LATENCY: 159.685 cycles
LLC RQ	ACCESS:      47813	FORWARD:          0	MERGED:          0	TO_CACHE:      47812
LLC WQ	ACCESS:      14332	FORWARD:          1	MERGED:          0	TO_CACHE:      14332
LLC PQ	ACCESS:     256075	FORWARD:          0	MERGED:          0	TO_CACHE:     256075

LLC Dense regions hint to LLC: 0

RAW hits: 1152690
Loads Generated: 12635430
Loads sent to L1D: 11482739
Stores Generated: 7236320
Stores sent to L1D: 7236333
Major fault: 0 Minor fault: 1263
Allocated PAGES: 1263
I-Shadow cache 408 bytes
Touched + WorthPF tables 6144 bytes 
MMA filter 174 bytes 
FNL filter 272 bytes 
TOTAL PREFETCHER STORAGE SIZE: 25174 bytes
CPU 0 L1I next line prefetcher final stats
[Bingo] PHT Access: 268883
[Bingo] PHT Hit PC+Addr: 148785
[Bingo] PHT Hit PC+Offs: 6087
[Bingo] PHT Miss: 114011
[Bingo] Prefetch PC+Addr: 0
[Bingo] Prefetch PC+Offs: 0
[Bingo] Useful PC+Addr: 0
[Bingo] Useful PC+Offs: 0
[Bingo] Useless PC+Addr: 0
[Bingo] Useless PC+Offs: 0
[Bingo] L1 Prefetch per Region: 0
[Bingo] L2 Prefetch per Region: 4.32588
[Bingo] L3 Prefetch per Region: 0
[Bingo] No Prefetch per Region: 27.6741
[Bingo] Number of Voters Mean: 9.21916
[Bingo] Number of Voters SD: 10.984
PHT read accesses: 679078
PHT write accesses: 132018
AT read accesses: 578828
AT write accesses: 697153
FT read accesses: 405100
FT write accesses: 268883
PS read accesses: 313412
PS write accesses: 154872
PHT tag read accesses: 4281839
PHT tag write accesses: 280803
AT tag read accesses: 24586628
AT tag write accesses: 710846
FT tag read accesses: 21060455
FT tag write accesses: 540331
PS tag read accesses: 19528986
PS tag write accesses: 467146

DRAM Statistics
 CHANNEL 0
 RQ ROW_BUFFER_HIT:       1260  ROW_BUFFER_MISS:       1694
 DBUS_CONGESTED:          0
 WQ ROW_BUFFER_HIT:          0  ROW_BUFFER_MISS:         21  FULL:          0

 AVG_CONGESTED_CYCLE: -
 All warmup complete: 2
Channel 0 Bank busy for read cycles: 0
Channel 0 Bank busy for write cycles: 0
Channel 0
Rank 0
0banks busy for read cycles: 77464121
0banks busy for write cycles: 20
1banks busy for read cycles: 101804
1banks busy for write cycles: 3603
2banks busy for read cycles: 21676
2banks busy for write cycles: 149
3banks busy for read cycles: 3743
3banks busy for write cycles: 0
4banks busy for read cycles: 2682
4banks busy for write cycles: 0
5banks busy for read cycles: 1678
5banks busy for write cycles: 0
6banks busy for read cycles: 2647
6banks busy for write cycles: 0
7banks busy for read cycles: 2667
7banks busy for write cycles: 0
8banks busy for read cycles: 13381
8banks busy for write cycles: 0

CPU 0 Branch Prediction Accuracy: 99.8762% MPKI: 0.2296 Average ROB Occupancy at Mispredict: 86.7932
Branch types
NOT_BRANCH: 40725940 81.4519%
BRANCH_DIRECT_JUMP: 508368 1.01674%
BRANCH_INDIRECT: 180051 0.360102%
BRANCH_CONDITIONAL: 5999625 11.9992%
BRANCH_DIRECT_CALL: 1086730 2.17346%
BRANCH_INDIRECT_CALL: 206109 0.412218%
BRANCH_RETURN: 1292826 2.58565%
BRANCH_OTHER: 0 0%

DRAM PAGES: 1048576
Allocated PAGES: 1263
