Initialize SIGNATURE TABLE
ST_SET: 1
ST_WAY: 256
ST_TAG_BIT: 16
ST_TAG_MASK: ffff

Initialize PATTERN TABLE
PT_SET: 512
PT_WAY: 4
SIG_DELTA_BIT: 7
C_SIG_BIT: 4
C_DELTA_BIT: 4

Initialize PREFETCH FILTER
FILTER_SET: 1024

*** ChampSim Multicore Out-of-Order Simulator ***

Warmup Instructions: 50000000
Simulation Instructions: 50000000
Number of CPUs: 1
LLC sets: 2048
LLC ways: 16
Off-chip DRAM Size: 4096 MB Channels: 1 Width: 64-bit Data Rate: 6400 MT/s
CPU 0 runs ../IPC-traces//server_027.champsimtrace.xz
.xz
NUM_OF_IPS_IN_CRITICAL_IP_TRAINING: 64
NUM_OF_CRITICAL_IP_TRAINING_TABLE_WAYS: 2
NUM_OF_CRITICAL_IP_TRAINING_TABLE_SETS: 32
WOBBLY_CRITICAL_IP_CACHE_SETS: 32
WOBBLY_CRITICAL_IP_CACHE_WAYS: 4
BTB has LRU replacement policy
ITLB has LRU replacement policy
DTLB has LRU replacement policy
STLB has LRU replacement policy
CPU 0 L1I next line prefetcher
L1I has LRU replacement policy
L1D has LRU replacement policy
Initialize SRRIP state for L2C
Initialize DRRIP state for LLC
Heartbeat CPU 0 instructions: 10000000 cycles: 2884554 heartbeat IPC: 3.46674 cumulative IPC: 3.46674 (Simulation time: 0 hr 3 min 27 sec) 
Heartbeat CPU 0 instructions: 20000001 cycles: 5766306 heartbeat IPC: 3.47011 cumulative IPC: 3.46843 (Simulation time: 0 hr 6 min 12 sec) 
Heartbeat CPU 0 instructions: 30000002 cycles: 8647736 heartbeat IPC: 3.4705 cumulative IPC: 3.46912 (Simulation time: 0 hr 8 min 42 sec) 
Heartbeat CPU 0 instructions: 40000000 cycles: 11530232 heartbeat IPC: 3.46921 cumulative IPC: 3.46914 (Simulation time: 0 hr 10 min 53 sec) 
Heartbeat CPU 0 instructions: 50000001 cycles: 14410797 heartbeat IPC: 3.47154 cumulative IPC: 3.46962 (Simulation time: 0 hr 12 min 55 sec) 

Warmup complete CPU 0 instructions: 50000001 cycles: 14410797 (Simulation time: 0 hr 12 min 55 sec) 

Heartbeat CPU 0 instructions: 60000002 cycles: 30886998 heartbeat IPC: 0.606936 cumulative IPC: 0.606936 (Simulation time: 0 hr 15 min 17 sec) 
Heartbeat CPU 0 instructions: 70000001 cycles: 47310322 heartbeat IPC: 0.60889 cumulative IPC: 0.607912 (Simulation time: 0 hr 17 min 37 sec) 
Heartbeat CPU 0 instructions: 80000002 cycles: 63685249 heartbeat IPC: 0.61069 cumulative IPC: 0.608835 (Simulation time: 0 hr 19 min 57 sec) 
Heartbeat CPU 0 instructions: 90000000 cycles: 80214281 heartbeat IPC: 0.604996 cumulative IPC: 0.607871 (Simulation time: 0 hr 22 min 15 sec) 
Heartbeat CPU 0 instructions: 100000002 cycles: 96548315 heartbeat IPC: 0.612219 cumulative IPC: 0.608735 (Simulation time: 0 hr 25 min 2 sec) 
Finished CPU 0 instructions: 50000001 cycles: 82137518 cumulative IPC: 0.608735 (Simulation time: 0 hr 25 min 2 sec) 

ChampSim completed all CPUs

Region of Interest Statistics

CPU 0 cumulative IPC: 0.608735 instructions: 50000001 cycles: 82137518

CPU 0 Average Load ROB stall cycles: 1.99358e+07
CPU 0 Fraction of times ROB stalled by Loads: 35.9038
CPU 0 Percentage of Load stall cycles in Total stall cycles: 2.86407e+08
Issued all: 28178974
Issued LT all: 22393286
rob_not_full_when_issued_lt_all: 22068025
Issued LT one: 17358022
rob_not_full_when_issued_lt_one: 17077129
 Total stall cycles: 68718367
 Total load stall cycles: 196813871267490
CPU 0 NUM of IPS identified critical: 0
CPU 0 Num of Load IPs stalling ROB: 12379
Threshold modification factor: 0
Max PIST entries: 64
Min PIST entries: 0
Avg PIST entries: 32
Trouble in retire width: 0.909862
MaC = Marked as critical.
lt_50_percent_before_Mac: 0
gt_90_percent_before_Mac: 0
gt_75_percent_before_Mac: 0
gt_50_percent_before_Mac: 0
stall_proportion_bin_same_before_after: 0
stall_proportion_bin_lower_before_after: 0
stall_proportion_bin_upper_before_after: 0
average_stall_proportion_before: -nan
average_stall_proportion_after: -nan
Critical IP stalls, total frequency: 0
Non-critical IP stalls, total frequency: 3544569
Total Freq all stalling IPs: 3544569
stat_90_percent_critical_ip_stalls_freq: 3190147
stat_90_percent_non_critical_ip_stalls_freq: 354422
Critical_IP_ROB_Stalls_Bucket_0: 0
Non-critical_IP_ROB_Stalls_Bucket_0: 2529239
Critical_IP_ROB_Stalls_Bucket_1: 0
Non-critical_IP_ROB_Stalls_Bucket_1: 683816
Critical_IP_ROB_Stalls_Bucket_2: 0
Non-critical_IP_ROB_Stalls_Bucket_2: 222865
Critical_IP_ROB_Stalls_Bucket_3: 0
Non-critical_IP_ROB_Stalls_Bucket_3: 54815
Critical_IP_ROB_Stalls_Bucket_4: 0
Non-critical_IP_ROB_Stalls_Bucket_4: 21448
Critical_IP_ROB_Stalls_Bucket_5: 0
Non-critical_IP_ROB_Stalls_Bucket_5: 11809
Critical_IP_ROB_Stalls_Bucket_6: 0
Non-critical_IP_ROB_Stalls_Bucket_6: 20577
0 => IPs accounting for >50 percent of stalls, 1 => 55, 2 => 60, 3 => 65 and so on till 90.
percent50: 50.0117 num IPs:  564
percent55: 55.0035 num IPs: 787
percent60: 60.0026 num IPs: 1030
percent65: 65.0002 num IPs: 1277
percent70: 70.0001 num IPs: 1558
percent75: 75.0091 num IPs: 1916
percent80: 80.0033 num IPs: 2296
percent85: 85.0027 num IPs: 2816
percent90: 90.0004 num IPs: 3517
Critical_ROB_Stalls_Percent_0_Bucket_0: 1031136
Non-critical_ROB_Stalls_Percent_0_Bucket_0: 1498103
Critical_ROB_Stalls_Percent_0_Bucket_1: 466868
Non-critical_ROB_Stalls_Percent_0_Bucket_1: 216948
Critical_ROB_Stalls_Percent_0_Bucket_2: 176963
Non-critical_ROB_Stalls_Percent_0_Bucket_2: 45902
Critical_ROB_Stalls_Percent_0_Bucket_3: 49531
Non-critical_ROB_Stalls_Percent_0_Bucket_3: 5284
Critical_ROB_Stalls_Percent_0_Bucket_4: 19065
Non-critical_ROB_Stalls_Percent_0_Bucket_4: 2383
Critical_ROB_Stalls_Percent_0_Bucket_5: 10545
Non-critical_ROB_Stalls_Percent_0_Bucket_5: 1264
Critical_ROB_Stalls_Percent_0_Bucket_6: 18589
Non-critical_ROB_Stalls_Percent_0_Bucket_6: 1988
Critical_ROB_Stalls_Percent_1_Bucket_0: 1169070
Non-critical_ROB_Stalls_Percent_1_Bucket_0: 1360169
Critical_ROB_Stalls_Percent_1_Bucket_1: 497787
Non-critical_ROB_Stalls_Percent_1_Bucket_1: 186029
Critical_ROB_Stalls_Percent_1_Bucket_2: 183596
Non-critical_ROB_Stalls_Percent_1_Bucket_2: 39269
Critical_ROB_Stalls_Percent_1_Bucket_3: 50369
Non-critical_ROB_Stalls_Percent_1_Bucket_3: 4446
Critical_ROB_Stalls_Percent_1_Bucket_4: 19462
Non-critical_ROB_Stalls_Percent_1_Bucket_4: 1986
Critical_ROB_Stalls_Percent_1_Bucket_5: 10646
Non-critical_ROB_Stalls_Percent_1_Bucket_5: 1163
Critical_ROB_Stalls_Percent_1_Bucket_6: 18706
Non-critical_ROB_Stalls_Percent_1_Bucket_6: 1871
Critical_ROB_Stalls_Percent_2_Bucket_0: 1296095
Non-critical_ROB_Stalls_Percent_2_Bucket_0: 1233144
Critical_ROB_Stalls_Percent_2_Bucket_1: 538770
Non-critical_ROB_Stalls_Percent_2_Bucket_1: 145046
Critical_ROB_Stalls_Percent_2_Bucket_2: 192401
Non-critical_ROB_Stalls_Percent_2_Bucket_2: 30464
Critical_ROB_Stalls_Percent_2_Bucket_3: 50750
Non-critical_ROB_Stalls_Percent_2_Bucket_3: 4065
Critical_ROB_Stalls_Percent_2_Bucket_4: 19467
Non-critical_ROB_Stalls_Percent_2_Bucket_4: 1981
Critical_ROB_Stalls_Percent_2_Bucket_5: 10648
Non-critical_ROB_Stalls_Percent_2_Bucket_5: 1161
Critical_ROB_Stalls_Percent_2_Bucket_6: 18706
Non-critical_ROB_Stalls_Percent_2_Bucket_6: 1871
Critical_ROB_Stalls_Percent_3_Bucket_0: 1441370
Non-critical_ROB_Stalls_Percent_3_Bucket_0: 1087869
Critical_ROB_Stalls_Percent_3_Bucket_1: 565558
Non-critical_ROB_Stalls_Percent_3_Bucket_1: 118258
Critical_ROB_Stalls_Percent_3_Bucket_2: 196327
Non-critical_ROB_Stalls_Percent_3_Bucket_2: 26538
Critical_ROB_Stalls_Percent_3_Bucket_3: 51109
Non-critical_ROB_Stalls_Percent_3_Bucket_3: 3706
Critical_ROB_Stalls_Percent_3_Bucket_4: 19743
Non-critical_ROB_Stalls_Percent_3_Bucket_4: 1705
Critical_ROB_Stalls_Percent_3_Bucket_5: 10660
Non-critical_ROB_Stalls_Percent_3_Bucket_5: 1149
Critical_ROB_Stalls_Percent_3_Bucket_6: 19214
Non-critical_ROB_Stalls_Percent_3_Bucket_6: 1363
Critical_ROB_Stalls_Percent_4_Bucket_0: 1589747
Non-critical_ROB_Stalls_Percent_4_Bucket_0: 939492
Critical_ROB_Stalls_Percent_4_Bucket_1: 588173
Non-critical_ROB_Stalls_Percent_4_Bucket_1: 95643
Critical_ROB_Stalls_Percent_4_Bucket_2: 201571
Non-critical_ROB_Stalls_Percent_4_Bucket_2: 21294
Critical_ROB_Stalls_Percent_4_Bucket_3: 51831
Non-critical_ROB_Stalls_Percent_4_Bucket_3: 2984
Critical_ROB_Stalls_Percent_4_Bucket_4: 19937
Non-critical_ROB_Stalls_Percent_4_Bucket_4: 1511
Critical_ROB_Stalls_Percent_4_Bucket_5: 10731
Non-critical_ROB_Stalls_Percent_4_Bucket_5: 1078
Critical_ROB_Stalls_Percent_4_Bucket_6: 19215
Non-critical_ROB_Stalls_Percent_4_Bucket_6: 1362
Critical_ROB_Stalls_Percent_5_Bucket_0: 1740147
Non-critical_ROB_Stalls_Percent_5_Bucket_0: 789092
Critical_ROB_Stalls_Percent_5_Bucket_1: 609281
Non-critical_ROB_Stalls_Percent_5_Bucket_1: 74535
Critical_ROB_Stalls_Percent_5_Bucket_2: 207034
Non-critical_ROB_Stalls_Percent_5_Bucket_2: 15831
Critical_ROB_Stalls_Percent_5_Bucket_3: 52211
Non-critical_ROB_Stalls_Percent_5_Bucket_3: 2604
Critical_ROB_Stalls_Percent_5_Bucket_4: 20061
Non-critical_ROB_Stalls_Percent_5_Bucket_4: 1387
Critical_ROB_Stalls_Percent_5_Bucket_5: 10777
Non-critical_ROB_Stalls_Percent_5_Bucket_5: 1032
Critical_ROB_Stalls_Percent_5_Bucket_6: 19245
Non-critical_ROB_Stalls_Percent_5_Bucket_6: 1332
Critical_ROB_Stalls_Percent_6_Bucket_0: 1894783
Non-critical_ROB_Stalls_Percent_6_Bucket_0: 634456
Critical_ROB_Stalls_Percent_6_Bucket_1: 626082
Non-critical_ROB_Stalls_Percent_6_Bucket_1: 57734
Critical_ROB_Stalls_Percent_6_Bucket_2: 212074
Non-critical_ROB_Stalls_Percent_6_Bucket_2: 10791
Critical_ROB_Stalls_Percent_6_Bucket_3: 52360
Non-critical_ROB_Stalls_Percent_6_Bucket_3: 2455
Critical_ROB_Stalls_Percent_6_Bucket_4: 20142
Non-critical_ROB_Stalls_Percent_6_Bucket_4: 1306
Critical_ROB_Stalls_Percent_6_Bucket_5: 11000
Non-critical_ROB_Stalls_Percent_6_Bucket_5: 809
Critical_ROB_Stalls_Percent_6_Bucket_6: 19335
Non-critical_ROB_Stalls_Percent_6_Bucket_6: 1242
Critical_ROB_Stalls_Percent_7_Bucket_0: 2049988
Non-critical_ROB_Stalls_Percent_7_Bucket_0: 479251
Critical_ROB_Stalls_Percent_7_Bucket_1: 644278
Non-critical_ROB_Stalls_Percent_7_Bucket_1: 39538
Critical_ROB_Stalls_Percent_7_Bucket_2: 214960
Non-critical_ROB_Stalls_Percent_7_Bucket_2: 7905
Critical_ROB_Stalls_Percent_7_Bucket_3: 52893
Non-critical_ROB_Stalls_Percent_7_Bucket_3: 1922
Critical_ROB_Stalls_Percent_7_Bucket_4: 20359
Non-critical_ROB_Stalls_Percent_7_Bucket_4: 1089
Critical_ROB_Stalls_Percent_7_Bucket_5: 11057
Non-critical_ROB_Stalls_Percent_7_Bucket_5: 752
Critical_ROB_Stalls_Percent_7_Bucket_6: 19443
Non-critical_ROB_Stalls_Percent_7_Bucket_6: 1134
Critical_ROB_Stalls_Percent_8_Bucket_0: 2214309
Non-critical_ROB_Stalls_Percent_8_Bucket_0: 314930
Critical_ROB_Stalls_Percent_8_Bucket_1: 654993
Non-critical_ROB_Stalls_Percent_8_Bucket_1: 28823
Critical_ROB_Stalls_Percent_8_Bucket_2: 216697
Non-critical_ROB_Stalls_Percent_8_Bucket_2: 6168
Critical_ROB_Stalls_Percent_8_Bucket_3: 53156
Non-critical_ROB_Stalls_Percent_8_Bucket_3: 1659
Critical_ROB_Stalls_Percent_8_Bucket_4: 20422
Non-critical_ROB_Stalls_Percent_8_Bucket_4: 1026
Critical_ROB_Stalls_Percent_8_Bucket_5: 11093
Non-critical_ROB_Stalls_Percent_8_Bucket_5: 716
Critical_ROB_Stalls_Percent_8_Bucket_6: 19477
Non-critical_ROB_Stalls_Percent_8_Bucket_6: 1100
Average ROB occupancy Load Stall Begin: 36.5923
Average ROB occupancy Load Stall End: 44.5015
Min ROB occupancy Load Stall Begin: 1
Max ROB occupancy Load Stall Begin: 352
Min ROB occupancy Load Stall End: 1
Max ROB occupancy Load Stall End: 352
Average ROB occupancy Critical Load Stall Begin: -nan
Average ROB occupancy Critical Load Stall End: -nan
Min ROB occupancy Critical Load Stall Begin: 400
Max ROB occupancy Critical Load Stall Begin: 0
Min ROB occupancy Critical Load Stall End: 400
Max ROB occupancy Critical Load Stall End: 0
 ROB Load Stall Begin Bucket Count 0: 2763270
 ROB Load Stall End Bucket Count 0: 2529239
 ROB Critical Load Stall Begin Bucket Count 0: 0
 ROB Critical Load Stall End Bucket Count 0: 0
 ROB Load Stall Begin Bucket Count 1: 523858
 ROB Load Stall End Bucket Count 1: 683816
 ROB Critical Load Stall Begin Bucket Count 1: 0
 ROB Critical Load Stall End Bucket Count 1: 0
 ROB Load Stall Begin Bucket Count 2: 167460
 ROB Load Stall End Bucket Count 2: 222865
 ROB Critical Load Stall Begin Bucket Count 2: 0
 ROB Critical Load Stall End Bucket Count 2: 0
 ROB Load Stall Begin Bucket Count 3: 41850
 ROB Load Stall End Bucket Count 3: 54815
 ROB Critical Load Stall Begin Bucket Count 3: 0
 ROB Critical Load Stall End Bucket Count 3: 0
 ROB Load Stall Begin Bucket Count 4: 18431
 ROB Load Stall End Bucket Count 4: 21448
 ROB Critical Load Stall Begin Bucket Count 4: 0
 ROB Critical Load Stall End Bucket Count 4: 0
 ROB Load Stall Begin Bucket Count 5: 10802
 ROB Load Stall End Bucket Count 5: 11809
 ROB Critical Load Stall Begin Bucket Count 5: 0
 ROB Critical Load Stall End Bucket Count 5: 0
 ROB Load Stall Begin Bucket Count 6: 18898
 ROB Load Stall End Bucket Count 6: 20577
 ROB Critical Load Stall Begin Bucket Count 6: 0
 ROB Critical Load Stall End Bucket Count 6: 0
PIST Tag Read Accesses: 1747966
PIST Read Accesses: 873983
PIST Tag Write Accesses: 1747966
PIST Write Accesses: 873983
Criticality detector called times: 3431447
Max global_stall_cycles_count: 1668548
Threshold Modified: 0 times, factor: 0
Sturdy critical IP cache stats: 
 Unused entries: 0
CIC Tag Read Accesses: 0
CIC Read Accesses: 0
CIC Tag Write Accesses: 0
CIC Write Accesses: 0
Wobbly critical IP cache stats: 
 Unused entries: 125
CIC Tag Read Accesses: 158561032
CIC Read Accesses: 0
CIC Tag Write Accesses: 3
CIC Write Accesses: 0
ITLB TOTAL     ACCESS:   10077883  HIT:    9407318  MISS:     670565  HIT %:    93.3462  MISS %:    6.65383   MPKI: 13.4113
ITLB LOAD TRANSLATION ACCESS:    8096978  HIT:    8004567  MISS:      92411  HIT %:    98.8587  MISS %:     1.1413   MPKI: 1.84822
ITLB TRANSLATION FROM L1D PREFETCHER ACCESS:    1980905  HIT:    1402751  MISS:     578154  HIT %:    70.8136  MISS %:    29.1864   MPKI: 11.5631
ITLB PREFETCH  REQUESTED:          0  ISSUED:          0  USEFUL:     460995  USELESS:     117152
ITLB USEFUL LOAD PREFETCHES:     460995 PREFETCH ISSUED TO LOWER LEVEL:          0  ACCURACY: inf
ITLB TIMELY PREFETCHES:     460995 LATE PREFETCHES: 354 DROPPED PREFETCHES: 3961
ITLB PREFETCHES SAME FILL-ORIGIN LEVEL: 0 DIFFERENT FILL-ORIGIN LEVEL: 0
ITLB AVERAGE MISS LATENCY: 25769.9 cycles
ITLB RQ	ACCESS:   15137378	FORWARD:          0	MERGED:    5011293	TO_CACHE:   10126085

DTLB TOTAL     ACCESS:   11608747  HIT:   11134529  MISS:     474218  HIT %:     95.915  MISS %:    4.08501   MPKI: 9.48436
DTLB LOAD TRANSLATION ACCESS:   11608747  HIT:   11134529  MISS:     474218  HIT %:     95.915  MISS %:    4.08501   MPKI: 9.48436
DTLB PREFETCH  REQUESTED:          0  ISSUED:          0  USEFUL:          0  USELESS:          0
DTLB USEFUL LOAD PREFETCHES:          0 PREFETCH ISSUED TO LOWER LEVEL:          0  ACCURACY: -nan
DTLB TIMELY PREFETCHES:          0 LATE PREFETCHES: 0 DROPPED PREFETCHES: 0
DTLB PREFETCHES SAME FILL-ORIGIN LEVEL: 0 DIFFERENT FILL-ORIGIN LEVEL: 0
DTLB AVERAGE MISS LATENCY: 9.32995 cycles
DTLB RQ	ACCESS:   15076578	FORWARD:          0	MERGED:    3441735	TO_CACHE:   11634843

STLB TOTAL     ACCESS:    1144783  HIT:    1142655  MISS:       2128  HIT %:    99.8141  MISS %:   0.185887   MPKI: 0.04256
STLB LOAD TRANSLATION ACCESS:     566275  HIT:     564274  MISS:       2001  HIT %:    99.6466  MISS %:   0.353362   MPKI: 0.04002
STLB TRANSLATION FROM L1D PREFETCHER ACCESS:     578508  HIT:     578381  MISS:        127  HIT %:     99.978  MISS %:   0.021953   MPKI: 0.00254
STLB PREFETCH  REQUESTED:          0  ISSUED:          0  USEFUL:        115  USELESS:         11
STLB USEFUL LOAD PREFETCHES:        115 PREFETCH ISSUED TO LOWER LEVEL:          0  ACCURACY: inf
STLB TIMELY PREFETCHES:        115 LATE PREFETCHES: 0 DROPPED PREFETCHES: 3961
STLB PREFETCHES SAME FILL-ORIGIN LEVEL: 0 DIFFERENT FILL-ORIGIN LEVEL: 0
STLB AVERAGE MISS LATENCY: 78.1743 cycles
STLB RQ	ACCESS:    1148744	FORWARD:          0	MERGED:          0	TO_CACHE:    1148744

STLB Hit, L1D data hit: 0
STLB Hit, L2C data hit: 0
STLB Hit, LLC data hit: 0
STLB Hit, LLC data miss: 0
STLB STLB hints to L2: 0
L1D TOTAL     ACCESS:   14573911  HIT:   13555425  MISS:    1018486  HIT %:    93.0116  MISS %:    6.98842   MPKI: 20.3697
L1D LOAD      ACCESS:    8173885  HIT:    7443463  MISS:     730422  HIT %:     91.064  MISS %:    8.93604   MPKI: 14.6084
L1D RFO       ACCESS:    6400026  HIT:    6111962  MISS:     288064  HIT %:     95.499  MISS %:    4.50098   MPKI: 5.76128
L1D PREFETCH  REQUESTED:          0  ISSUED:          0  USEFUL:          0  USELESS:          0
L1D USEFUL LOAD PREFETCHES:          0 PREFETCH ISSUED TO LOWER LEVEL:          0  ACCURACY: -nan
L1D TIMELY PREFETCHES:          0 LATE PREFETCHES: 0 DROPPED PREFETCHES: 0
L1D PREFETCHES SAME FILL-ORIGIN LEVEL: 0 DIFFERENT FILL-ORIGIN LEVEL: 0
L1D AVERAGE MISS LATENCY: 23.9412 cycles
L1D RQ	ACCESS:   11678698	FORWARD:          0	MERGED:    3333881	TO_CACHE:    8204125
L1D WQ	ACCESS:    6942496	FORWARD:     140692	MERGED:      70043	TO_CACHE:    6872453

L1D UNIQUE REGIONS ACCESSED: 0
L1D REGIONS CONFLICTS: 0
L1D Cross Page Prefetch Requests: 0
L1D Same Page Prefetch Requests: 0
L1D ROI Sum of L1D PQ occupancy: 0
L1D PREFETCHES PUSHED FROM L2C: 0
L1I TOTAL     ACCESS:   14991766  HIT:   10882647  MISS:    4109119  HIT %:    72.5908  MISS %:    27.4092   MPKI: 82.1824
L1I LOAD      ACCESS:    9549014  HIT:    9264531  MISS:     284483  HIT %:    97.0208  MISS %:    2.97919   MPKI: 5.68966
L1I PREFETCH  ACCESS:    5442752  HIT:    1618116  MISS:    3824636  HIT %:    29.7297  MISS %:    70.2703   MPKI: 76.4927
L1I PREFETCH  REQUESTED:    5707813  ISSUED:    5695458  USEFUL:    2598661  USELESS:    1225945
L1I USEFUL LOAD PREFETCHES:    2598661 PREFETCH ISSUED TO LOWER LEVEL:    3853442  ACCURACY: 67.4374
L1I TIMELY PREFETCHES:    2598661 LATE PREFETCHES: 28806 DROPPED PREFETCHES: 9357
L1I PREFETCHES SAME FILL-ORIGIN LEVEL: 3853442 DIFFERENT FILL-ORIGIN LEVEL: 0
L1I AVERAGE MISS LATENCY: 388307 cycles
L1I RQ	ACCESS:   13512884	FORWARD:          0	MERGED:    3941845	TO_CACHE:    9571039
L1I PQ	ACCESS:    5695458	FORWARD:          0	MERGED:     129119	TO_CACHE:    5566339

BTB TOTAL     ACCESS:    5988361  HIT:    3982729  MISS:    2005632  HIT %:    66.5078  MISS %:    33.4922   MPKI: 40.1126
BTB BRANCH_DIRECT_JUMP	ACCESS:     526631  HIT:     350330  MISS:     176301
BTB BRANCH_INDIRECT	ACCESS:     205902  HIT:     168509  MISS:      37393
BTB BRANCH_CONDITIONAL	ACCESS:    3029927  HIT:    2469489  MISS:     560438
BTB BRANCH_DIRECT_CALL	ACCESS:     938462  HIT:     531149  MISS:     407313
BTB BRANCH_INDIRECT_CALL	ACCESS:     174486  HIT:      95785  MISS:      78701
BTB BRANCH_RETURN	ACCESS:    1112953  HIT:     367467  MISS:     745486
BTB BRANCH_OTHER ACCESS:          0  HIT:          0  MISS:          0

L2C TOTAL     ACCESS:    5994974  HIT:    5507089  MISS:     487885  HIT %:    91.8618  MISS %:    8.13823   MPKI: 9.7577
L2C LOAD      ACCESS:     985999  HIT:     836156  MISS:     149843  HIT %:    84.8029  MISS %:    15.1971   MPKI: 2.99686
L2C DATA LOAD MPKI: 2.31598
L2C INSTRUCTION LOAD MPKI: 0.68088
L2C RFO       ACCESS:     288063  HIT:     228355  MISS:      59708  HIT %:    79.2726  MISS %:    20.7274   MPKI: 1.19416
L2C PREFETCH  ACCESS:    4207847  HIT:    3953126  MISS:     254721  HIT %:    93.9465  MISS %:    6.05348   MPKI: 5.09442
L2C DATA PREFETCH MPKI: 0.18142
L2C INSTRUCTION PREFETCH MPKI: 4.913
L2C WRITEBACK ACCESS:     505236  HIT:     483433  MISS:      21803  HIT %:    95.6846  MISS %:    4.31541   MPKI: 0.43606
L2C LOAD TRANSLATION ACCESS:       2148  HIT:        550  MISS:       1598  HIT %:    25.6052  MISS %:    74.3948   MPKI: 0.03196
L2C TRANSLATION FROM L1D PREFETCHER ACCESS:       5681  HIT:       5469  MISS:        212  HIT %:    96.2683  MISS %:    3.73174   MPKI: 0.00424
L2C PREFETCH  REQUESTED:    1930574  ISSUED:    1930574  USEFUL:       6278  USELESS:     248871
L2C USEFUL LOAD PREFETCHES:       6278 PREFETCH ISSUED TO LOWER LEVEL:     584650  ACCURACY: 1.0738
L2C TIMELY PREFETCHES:       6278 LATE PREFETCHES: 1712 DROPPED PREFETCHES: 0
L2C PREFETCHES SAME FILL-ORIGIN LEVEL: 10798 DIFFERENT FILL-ORIGIN LEVEL: 328217
L2C AVERAGE MISS LATENCY: 36.9102 cycles
L2C RQ	ACCESS:    1281992	FORWARD:          0	MERGED:          0	TO_CACHE:    1281891
L2C WQ	ACCESS:     505236	FORWARD:        101	MERGED:          0	TO_CACHE:     505236
L2C PQ	ACCESS:    5784016	FORWARD:          0	MERGED:    1244287	TO_CACHE:    4539729

L2C Instructions Evicting Data 106687
L2C Translations Evicting Data 1085
L2C Data Evicting Data 89618
L2C Instructions Evicting Instructions 172283
L2C Translations Evicting Instructions 695
L2C Data Evicting Instructions 93938
L2C Instructions Evicting Translations 724
L2C Translations Evicting Translations 30
L2C Data Evicting Translations 1022
L2C Dense regions hint from L2: 0
PSCL5 TOTAL     ACCESS:       6089  HIT:       6089  MISS:          0  HIT %:        100  MISS %:          0   MPKI: 0
PSCL5 LOAD TRANSLATION ACCESS:       2001  HIT:       2001  MISS:          0  HIT %:        100  MISS %:          0   MPKI: 0
PSCL5 TRANSLATION FROM L1D PREFETCHER ACCESS:       4088  HIT:       4088  MISS:          0  HIT %:        100  MISS %:          0   MPKI: 0
PSCL5 PREFETCH  REQUESTED:          0  ISSUED:          0  USEFUL:          0  USELESS:          0
PSCL5 USEFUL LOAD PREFETCHES:          0 PREFETCH ISSUED TO LOWER LEVEL:          0  ACCURACY: -nan
PSCL5 TIMELY PREFETCHES:          0 LATE PREFETCHES: 0 DROPPED PREFETCHES: 0
PSCL5 PREFETCHES SAME FILL-ORIGIN LEVEL: 0 DIFFERENT FILL-ORIGIN LEVEL: 0

PSCL4 TOTAL     ACCESS:       5739  HIT:       5722  MISS:         17  HIT %:    99.7038  MISS %:   0.296219   MPKI: 0.00034
PSCL4 LOAD TRANSLATION ACCESS:       1900  HIT:       1883  MISS:         17  HIT %:    99.1053  MISS %:   0.894737   MPKI: 0.00034
PSCL4 TRANSLATION FROM L1D PREFETCHER ACCESS:       3839  HIT:       3839  MISS:          0  HIT %:        100  MISS %:          0   MPKI: 0
PSCL4 PREFETCH  REQUESTED:          0  ISSUED:          0  USEFUL:          0  USELESS:          0
PSCL4 USEFUL LOAD PREFETCHES:          0 PREFETCH ISSUED TO LOWER LEVEL:          0  ACCURACY: -nan
PSCL4 TIMELY PREFETCHES:          0 LATE PREFETCHES: 0 DROPPED PREFETCHES: 0
PSCL4 PREFETCHES SAME FILL-ORIGIN LEVEL: 0 DIFFERENT FILL-ORIGIN LEVEL: 0

PSCL3 TOTAL     ACCESS:       5789  HIT:       5772  MISS:         17  HIT %:    99.7063  MISS %:    0.29366   MPKI: 0.00034
PSCL3 LOAD TRANSLATION ACCESS:       1950  HIT:       1933  MISS:         17  HIT %:    99.1282  MISS %:   0.871795   MPKI: 0.00034
PSCL3 TRANSLATION FROM L1D PREFETCHER ACCESS:       3839  HIT:       3839  MISS:          0  HIT %:        100  MISS %:          0   MPKI: 0
PSCL3 PREFETCH  REQUESTED:          0  ISSUED:          0  USEFUL:          0  USELESS:          0
PSCL3 USEFUL LOAD PREFETCHES:          0 PREFETCH ISSUED TO LOWER LEVEL:          0  ACCURACY: -nan
PSCL3 TIMELY PREFETCHES:          0 LATE PREFETCHES: 0 DROPPED PREFETCHES: 0
PSCL3 PREFETCHES SAME FILL-ORIGIN LEVEL: 0 DIFFERENT FILL-ORIGIN LEVEL: 0

PSCL2 TOTAL     ACCESS:       4698  HIT:       4557  MISS:        141  HIT %:    96.9987  MISS %:    3.00128   MPKI: 0.00282
PSCL2 LOAD TRANSLATION ACCESS:       2021  HIT:       1880  MISS:        141  HIT %:    93.0233  MISS %:    6.97674   MPKI: 0.00282
PSCL2 TRANSLATION FROM L1D PREFETCHER ACCESS:       2677  HIT:       2677  MISS:          0  HIT %:        100  MISS %:          0   MPKI: 0
PSCL2 PREFETCH  REQUESTED:          0  ISSUED:          0  USEFUL:          0  USELESS:          0
PSCL2 USEFUL LOAD PREFETCHES:          0 PREFETCH ISSUED TO LOWER LEVEL:          0  ACCURACY: -nan
PSCL2 TIMELY PREFETCHES:          0 LATE PREFETCHES: 0 DROPPED PREFETCHES: 0
PSCL2 PREFETCHES SAME FILL-ORIGIN LEVEL: 0 DIFFERENT FILL-ORIGIN LEVEL: 0

LLC TOTAL     ACCESS:     877151  HIT:     849323  MISS:      27828  HIT %:    96.8275  MISS %:    3.17254   MPKI: 0.55656
LLC LOAD      ACCESS:     148131  HIT:     138569  MISS:       9562  HIT %:    93.5449  MISS %:     6.4551   MPKI: 0.19124
LLC RFO       ACCESS:      59708  HIT:      44968  MISS:      14740  HIT %:    75.3132  MISS %:    24.6868   MPKI: 0.2948
LLC PREFETCH  ACCESS:     583068  HIT:     580004  MISS:       3064  HIT %:    99.4745  MISS %:   0.525496   MPKI: 0.06128
LLC WRITEBACK ACCESS:      84434  HIT:      84116  MISS:        318  HIT %:    99.6234  MISS %:   0.376626   MPKI: 0.00636
LLC LOAD TRANSLATION ACCESS:       1598  HIT:       1459  MISS:        139  HIT %:    91.3016  MISS %:    8.69837   MPKI: 0.00278
LLC TRANSLATION FROM L1D PREFETCHER ACCESS:        212  HIT:        207  MISS:          5  HIT %:    97.6415  MISS %:    2.35849   MPKI: 0.0001
LLC PREFETCH  REQUESTED:          0  ISSUED:          0  USEFUL:        105  USELESS:       1742
LLC USEFUL LOAD PREFETCHES:        105 PREFETCH ISSUED TO LOWER LEVEL:       3157  ACCURACY: 3.32594
LLC TIMELY PREFETCHES:        105 LATE PREFETCHES: 93 DROPPED PREFETCHES: 0
LLC PREFETCHES SAME FILL-ORIGIN LEVEL: 2493 DIFFERENT FILL-ORIGIN LEVEL: 0
LLC AVERAGE MISS LATENCY: 158.57 cycles
LLC RQ	ACCESS:     209649	FORWARD:          0	MERGED:          0	TO_CACHE:     209649
LLC WQ	ACCESS:      84434	FORWARD:          0	MERGED:          0	TO_CACHE:      84434
LLC PQ	ACCESS:     584650	FORWARD:          0	MERGED:       1166	TO_CACHE:     583484

LLC Dense regions hint to LLC: 0

RAW hits: 956030
Loads Generated: 12634728
Loads sent to L1D: 11678698
Stores Generated: 6942481
Stores sent to L1D: 6942496
Major fault: 0 Minor fault: 2582
Allocated PAGES: 2582
I-Shadow cache 408 bytes
Touched + WorthPF tables 6144 bytes 
MMA filter 174 bytes 
FNL filter 272 bytes 
TOTAL PREFETCHER STORAGE SIZE: 25174 bytes
CPU 0 L1I next line prefetcher final stats
 All Calls: 9391159
 Critical Calls: 2621659
------------------
Depth Distribution
------------------
depth 0: 0
depth 1: 2446082
depth 2: 1295059
depth 3: 21544
depth 4: 3018
depth 5: 1233
depth 6: 540
depth 7: 189
depth 8: 62
depth 9: 0
depth 10: 0
depth 11: 0
depth 12: 0
depth 13: 0
depth 14: 0
depth 15: 0
depth 16: 0
depth 17: 0
depth 18: 0
depth 19: 0
depth 20: 0
depth 21: 0
depth 22: 0
depth 23: 0
depth 24: 0
depth 25: 0
depth 26: 0
depth 27: 0
depth 28: 0
depth 29: 0
Total: 3767727
-----------------------------
-----------------------------
	Captured at Filter
-----------------------------
depth 0: 0
depth 1: 178362
depth 2: 85093
depth 3: 1269
depth 4: 16
depth 5: 5
depth 6: 0
depth 7: 0
depth 8: 0
depth 9: 0
depth 10: 0
depth 11: 0
depth 12: 0
depth 13: 0
depth 14: 0
depth 15: 0
depth 16: 0
depth 17: 0
depth 18: 0
depth 19: 0
depth 20: 0
depth 21: 0
depth 22: 0
depth 23: 0
depth 24: 0
depth 25: 0
depth 26: 0
depth 27: 0
depth 28: 0
depth 29: 0
-----------------------------
-----------------------------
		Lost at Page
-----------------------------
depth 0: 0
depth 1: 54915
depth 2: 35390
depth 3: 748
depth 4: 190
depth 5: 121
depth 6: 59
depth 7: 28
depth 8: 12
depth 9: 0
depth 10: 0
depth 11: 0
depth 12: 0
depth 13: 0
depth 14: 0
depth 15: 0
depth 16: 0
depth 17: 0
depth 18: 0
depth 19: 0
depth 20: 0
depth 21: 0
depth 22: 0
depth 23: 0
depth 24: 0
depth 25: 0
depth 26: 0
depth 27: 0
depth 28: 0
depth 29: 0
-----------------------------
-----------------------------
	Lost due to PQ Size
-----------------------------
110
-----------------------------
ST read accesses: 1176569
ST write accesses: 165332
PT read accesses: 18666869
PT write accesses: 1564738
FILTER read accesses: 3906758
FILTER write accesses: 669718
GHR read accesses: 1639140
GHR write accesses: 57529
GHR counter read accesses: 16433814
GHR counter write accesses: 1531772
ST tag read accesses: 600341830
ST tag write accesses: 63721585

DRAM Statistics
 CHANNEL 0
 RQ ROW_BUFFER_HIT:       9291  ROW_BUFFER_MISS:      18213
 DBUS_CONGESTED:          3
 WQ ROW_BUFFER_HIT:       1441  ROW_BUFFER_MISS:      13903  FULL:          0

 AVG_CONGESTED_CYCLE: 2
 All warmup complete: 2
Channel 0 Bank busy for read cycles: 0
Channel 0 Bank busy for write cycles: 0
Channel 0
Rank 0
0banks busy for read cycles: 79053416
0banks busy for write cycles: 4098
1banks busy for read cycles: 1454958
1banks busy for write cycles: 566014
2banks busy for read cycles: 151643
2banks busy for write cycles: 145585
3banks busy for read cycles: 61558
3banks busy for write cycles: 88036
4banks busy for read cycles: 32285
4banks busy for write cycles: 76787
5banks busy for read cycles: 25275
5banks busy for write cycles: 81165
6banks busy for read cycles: 27984
6banks busy for write cycles: 75379
7banks busy for read cycles: 34341
7banks busy for write cycles: 74877
8banks busy for read cycles: 75721
8banks busy for write cycles: 108397

CPU 0 Branch Prediction Accuracy: 99.8082% MPKI: 0.35064 Average ROB Occupancy at Mispredict: 71.5598
Branch types
NOT_BRANCH: 40857236 81.7145%
BRANCH_DIRECT_JUMP: 526631 1.05326%
BRANCH_INDIRECT: 205902 0.411804%
BRANCH_CONDITIONAL: 6184015 12.368%
BRANCH_DIRECT_CALL: 938462 1.87692%
BRANCH_INDIRECT_CALL: 174486 0.348972%
BRANCH_RETURN: 1112953 2.22591%
BRANCH_OTHER: 0 0%

DRAM PAGES: 1048576
Allocated PAGES: 2582
