
*** ChampSim Multicore Out-of-Order Simulator ***

Warmup Instructions: 50000000
Simulation Instructions: 50000000
Number of CPUs: 1
LLC sets: 2048
LLC ways: 16
Off-chip DRAM Size: 4096 MB Channels: 1 Width: 64-bit Data Rate: 6400 MT/s
CPU 0 runs ../IPC-traces//server_011.champsimtrace.xz
.xz
NUM_OF_IPS_IN_CRITICAL_IP_TRAINING: 64
NUM_OF_CRITICAL_IP_TRAINING_TABLE_WAYS: 2
NUM_OF_CRITICAL_IP_TRAINING_TABLE_SETS: 32
WOBBLY_CRITICAL_IP_CACHE_SETS: 32
WOBBLY_CRITICAL_IP_CACHE_WAYS: 4
BTB has LRU replacement policy
ITLB has LRU replacement policy
DTLB has LRU replacement policy
STLB has LRU replacement policy
CPU 0 L1I next line prefetcher
L1I has LRU replacement policy
IP Table Entries: 64
L1D has LRU replacement policy
IP_Table L2 entries: 64
Initialize SRRIP state for L2C
Initialize DRRIP state for LLC
Heartbeat CPU 0 instructions: 10000002 cycles: 2776532 heartbeat IPC: 3.60162 cumulative IPC: 3.60162 (Simulation time: 0 hr 3 min 26 sec) 
Heartbeat CPU 0 instructions: 20000002 cycles: 5550899 heartbeat IPC: 3.60443 cumulative IPC: 3.60302 (Simulation time: 0 hr 6 min 16 sec) 
Heartbeat CPU 0 instructions: 30000001 cycles: 8343817 heartbeat IPC: 3.58048 cumulative IPC: 3.59548 (Simulation time: 0 hr 8 min 38 sec) 
Heartbeat CPU 0 instructions: 40000003 cycles: 11114528 heartbeat IPC: 3.60918 cumulative IPC: 3.59889 (Simulation time: 0 hr 10 min 53 sec) 
Heartbeat CPU 0 instructions: 50000002 cycles: 13886749 heartbeat IPC: 3.60722 cumulative IPC: 3.60055 (Simulation time: 0 hr 13 min 6 sec) 

Warmup complete CPU 0 instructions: 50000002 cycles: 13886749 (Simulation time: 0 hr 13 min 6 sec) 

% increase in all ip prefetch 368.986
% increase in all ip prefetch 8.59904
% increase in all ip prefetch 6.38528
% increase in all ip prefetch -1.76689
Heartbeat CPU 0 instructions: 60000002 cycles: 28017138 heartbeat IPC: 0.707695 cumulative IPC: 0.707695 (Simulation time: 0 hr 15 min 25 sec) 
Heartbeat CPU 0 instructions: 70000001 cycles: 42965760 heartbeat IPC: 0.668958 cumulative IPC: 0.687781 (Simulation time: 0 hr 17 min 36 sec) 
Heartbeat CPU 0 instructions: 80000001 cycles: 60009868 heartbeat IPC: 0.586713 cumulative IPC: 0.650433 (Simulation time: 0 hr 19 min 43 sec) 
Heartbeat CPU 0 instructions: 90000001 cycles: 74553148 heartbeat IPC: 0.687603 cumulative IPC: 0.659344 (Simulation time: 0 hr 21 min 54 sec) 
Heartbeat CPU 0 instructions: 100000000 cycles: 88711673 heartbeat IPC: 0.706288 cumulative IPC: 0.668227 (Simulation time: 0 hr 24 min 1 sec) 
Finished CPU 0 instructions: 50000000 cycles: 74824939 cumulative IPC: 0.668226 (Simulation time: 0 hr 24 min 1 sec) 

ChampSim completed all CPUs

Region of Interest Statistics

CPU 0 cumulative IPC: 0.668226 instructions: 50000000 cycles: 74824939

CPU 0 Average Load ROB stall cycles: 5.67405e+06
CPU 0 Fraction of times ROB stalled by Loads: 11.0513
CPU 0 Percentage of Load stall cycles in Total stall cycles: 7.3517e+07
 Total stall cycles: 41521857
 Total load stall cycles: 30525628859095
CPU 0 NUM of IPS identified critical: 11
CPU 0 Num of Load IPs stalling ROB: 15957
Threshold modification factor: -3
Max PIST entries: 64
Min PIST entries: 0
Avg PIST entries: 32
Trouble in retire width: 0.783652
MaC = Marked as critical.
lt_50_percent_before_Mac: 6
gt_90_percent_before_Mac: 0
gt_75_percent_before_Mac: 1
gt_50_percent_before_Mac: 4
stall_proportion_bin_same_before_after: 0
stall_proportion_bin_lower_before_after: 0
stall_proportion_bin_upper_before_after: 0
average_stall_proportion_before: 0.261311
average_stall_proportion_after: 0.246739
Critical IP stalls, total frequency: 31167
Non-critical IP stalls, total frequency: 524850
Critical_IP_ROB_Stalls_Bucket_0: 11150
Non-critical_IP_ROB_Stalls_Bucket_0: 418236
Critical_IP_ROB_Stalls_Bucket_1: 2056
Non-critical_IP_ROB_Stalls_Bucket_1: 96531
Critical_IP_ROB_Stalls_Bucket_2: 16936
Non-critical_IP_ROB_Stalls_Bucket_2: 26622
Critical_IP_ROB_Stalls_Bucket_3: 727
Non-critical_IP_ROB_Stalls_Bucket_3: 9158
Critical_IP_ROB_Stalls_Bucket_4: 250
Non-critical_IP_ROB_Stalls_Bucket_4: 5019
Critical_IP_ROB_Stalls_Bucket_5: 22
Non-critical_IP_ROB_Stalls_Bucket_5: 2999
Critical_IP_ROB_Stalls_Bucket_6: 26
Non-critical_IP_ROB_Stalls_Bucket_6: 4815
0 => IPs accounting for >50 percent of stalls, 1 => 55, 2 => 60, 3 => 65 and so on till 90.
percent50: 50.0096 num IPs:305
percent55: 55.0109 num IPs:445
percent60: 60.0168 num IPs:648
percent65: 65.0058 num IPs:920
percent70: 70.0075 num IPs:1275
percent75: 75.0007 num IPs:1742
percent80: 80.0061 num IPs:2342
percent85: 85.0032 num IPs:3108
percent90: 90.0033 num IPs:4166
Critical_ROB_Stalls_Percent_0_Bucket_0: 198423
Non-critical_ROB_Stalls_Percent_0_Bucket_0: 230963
Critical_ROB_Stalls_Percent_0_Bucket_1: 44777
Non-critical_ROB_Stalls_Percent_0_Bucket_1: 53810
Critical_ROB_Stalls_Percent_0_Bucket_2: 27328
Non-critical_ROB_Stalls_Percent_0_Bucket_2: 16230
Critical_ROB_Stalls_Percent_0_Bucket_3: 2935
Non-critical_ROB_Stalls_Percent_0_Bucket_3: 6950
Critical_ROB_Stalls_Percent_0_Bucket_4: 1473
Non-critical_ROB_Stalls_Percent_0_Bucket_4: 3796
Critical_ROB_Stalls_Percent_0_Bucket_5: 889
Non-critical_ROB_Stalls_Percent_0_Bucket_5: 2132
Critical_ROB_Stalls_Percent_0_Bucket_6: 2237
Non-critical_ROB_Stalls_Percent_0_Bucket_6: 2604
Critical_ROB_Stalls_Percent_1_Bucket_0: 216156
Non-critical_ROB_Stalls_Percent_1_Bucket_0: 213230
Critical_ROB_Stalls_Percent_1_Bucket_1: 50285
Non-critical_ROB_Stalls_Percent_1_Bucket_1: 48302
Critical_ROB_Stalls_Percent_1_Bucket_2: 29508
Non-critical_ROB_Stalls_Percent_1_Bucket_2: 14050
Critical_ROB_Stalls_Percent_1_Bucket_3: 3718
Non-critical_ROB_Stalls_Percent_1_Bucket_3: 6167
Critical_ROB_Stalls_Percent_1_Bucket_4: 2066
Non-critical_ROB_Stalls_Percent_1_Bucket_4: 3203
Critical_ROB_Stalls_Percent_1_Bucket_5: 1323
Non-critical_ROB_Stalls_Percent_1_Bucket_5: 1698
Critical_ROB_Stalls_Percent_1_Bucket_6: 2814
Non-critical_ROB_Stalls_Percent_1_Bucket_6: 2027
Critical_ROB_Stalls_Percent_2_Bucket_0: 235894
Non-critical_ROB_Stalls_Percent_2_Bucket_0: 193492
Critical_ROB_Stalls_Percent_2_Bucket_1: 55301
Non-critical_ROB_Stalls_Percent_2_Bucket_1: 43286
Critical_ROB_Stalls_Percent_2_Bucket_2: 31095
Non-critical_ROB_Stalls_Percent_2_Bucket_2: 12463
Critical_ROB_Stalls_Percent_2_Bucket_3: 4417
Non-critical_ROB_Stalls_Percent_2_Bucket_3: 5468
Critical_ROB_Stalls_Percent_2_Bucket_4: 2491
Non-critical_ROB_Stalls_Percent_2_Bucket_4: 2778
Critical_ROB_Stalls_Percent_2_Bucket_5: 1510
Non-critical_ROB_Stalls_Percent_2_Bucket_5: 1511
Critical_ROB_Stalls_Percent_2_Bucket_6: 2996
Non-critical_ROB_Stalls_Percent_2_Bucket_6: 1845
Critical_ROB_Stalls_Percent_3_Bucket_0: 256051
Non-critical_ROB_Stalls_Percent_3_Bucket_0: 173335
Critical_ROB_Stalls_Percent_3_Bucket_1: 60280
Non-critical_ROB_Stalls_Percent_3_Bucket_1: 38307
Critical_ROB_Stalls_Percent_3_Bucket_2: 32380
Non-critical_ROB_Stalls_Percent_3_Bucket_2: 11178
Critical_ROB_Stalls_Percent_3_Bucket_3: 5008
Non-critical_ROB_Stalls_Percent_3_Bucket_3: 4877
Critical_ROB_Stalls_Percent_3_Bucket_4: 2852
Non-critical_ROB_Stalls_Percent_3_Bucket_4: 2417
Critical_ROB_Stalls_Percent_3_Bucket_5: 1672
Non-critical_ROB_Stalls_Percent_3_Bucket_5: 1349
Critical_ROB_Stalls_Percent_3_Bucket_6: 3200
Non-critical_ROB_Stalls_Percent_3_Bucket_6: 1641
Critical_ROB_Stalls_Percent_4_Bucket_0: 276363
Non-critical_ROB_Stalls_Percent_4_Bucket_0: 153023
Critical_ROB_Stalls_Percent_4_Bucket_1: 65387
Non-critical_ROB_Stalls_Percent_4_Bucket_1: 33200
Critical_ROB_Stalls_Percent_4_Bucket_2: 33646
Non-critical_ROB_Stalls_Percent_4_Bucket_2: 9912
Critical_ROB_Stalls_Percent_4_Bucket_3: 5495
Non-critical_ROB_Stalls_Percent_4_Bucket_3: 4390
Critical_ROB_Stalls_Percent_4_Bucket_4: 3165
Non-critical_ROB_Stalls_Percent_4_Bucket_4: 2104
Critical_ROB_Stalls_Percent_4_Bucket_5: 1838
Non-critical_ROB_Stalls_Percent_4_Bucket_5: 1183
Critical_ROB_Stalls_Percent_4_Bucket_6: 3360
Non-critical_ROB_Stalls_Percent_4_Bucket_6: 1481
Critical_ROB_Stalls_Percent_5_Bucket_0: 297253
Non-critical_ROB_Stalls_Percent_5_Bucket_0: 132133
Critical_ROB_Stalls_Percent_5_Bucket_1: 69775
Non-critical_ROB_Stalls_Percent_5_Bucket_1: 28812
Critical_ROB_Stalls_Percent_5_Bucket_2: 34871
Non-critical_ROB_Stalls_Percent_5_Bucket_2: 8687
Critical_ROB_Stalls_Percent_5_Bucket_3: 6114
Non-critical_ROB_Stalls_Percent_5_Bucket_3: 3771
Critical_ROB_Stalls_Percent_5_Bucket_4: 3442
Non-critical_ROB_Stalls_Percent_5_Bucket_4: 1827
Critical_ROB_Stalls_Percent_5_Bucket_5: 2068
Non-critical_ROB_Stalls_Percent_5_Bucket_5: 953
Critical_ROB_Stalls_Percent_5_Bucket_6: 3494
Non-critical_ROB_Stalls_Percent_5_Bucket_6: 1347
Critical_ROB_Stalls_Percent_6_Bucket_0: 318864
Non-critical_ROB_Stalls_Percent_6_Bucket_0: 110522
Critical_ROB_Stalls_Percent_6_Bucket_1: 73939
Non-critical_ROB_Stalls_Percent_6_Bucket_1: 24648
Critical_ROB_Stalls_Percent_6_Bucket_2: 35876
Non-critical_ROB_Stalls_Percent_6_Bucket_2: 7682
Critical_ROB_Stalls_Percent_6_Bucket_3: 6566
Non-critical_ROB_Stalls_Percent_6_Bucket_3: 3319
Critical_ROB_Stalls_Percent_6_Bucket_4: 3773
Non-critical_ROB_Stalls_Percent_6_Bucket_4: 1496
Critical_ROB_Stalls_Percent_6_Bucket_5: 2156
Non-critical_ROB_Stalls_Percent_6_Bucket_5: 865
Critical_ROB_Stalls_Percent_6_Bucket_6: 3672
Non-critical_ROB_Stalls_Percent_6_Bucket_6: 1169
Critical_ROB_Stalls_Percent_7_Bucket_0: 339398
Non-critical_ROB_Stalls_Percent_7_Bucket_0: 89988
Critical_ROB_Stalls_Percent_7_Bucket_1: 78314
Non-critical_ROB_Stalls_Percent_7_Bucket_1: 20273
Critical_ROB_Stalls_Percent_7_Bucket_2: 37281
Non-critical_ROB_Stalls_Percent_7_Bucket_2: 6277
Critical_ROB_Stalls_Percent_7_Bucket_3: 7251
Non-critical_ROB_Stalls_Percent_7_Bucket_3: 2634
Critical_ROB_Stalls_Percent_7_Bucket_4: 4102
Non-critical_ROB_Stalls_Percent_7_Bucket_4: 1167
Critical_ROB_Stalls_Percent_7_Bucket_5: 2330
Non-critical_ROB_Stalls_Percent_7_Bucket_5: 691
Critical_ROB_Stalls_Percent_7_Bucket_6: 3957
Non-critical_ROB_Stalls_Percent_7_Bucket_6: 884
Critical_ROB_Stalls_Percent_8_Bucket_0: 359241
Non-critical_ROB_Stalls_Percent_8_Bucket_0: 70145
Critical_ROB_Stalls_Percent_8_Bucket_1: 83230
Non-critical_ROB_Stalls_Percent_8_Bucket_1: 15357
Critical_ROB_Stalls_Percent_8_Bucket_2: 38743
Non-critical_ROB_Stalls_Percent_8_Bucket_2: 4815
Critical_ROB_Stalls_Percent_8_Bucket_3: 7985
Non-critical_ROB_Stalls_Percent_8_Bucket_3: 1900
Critical_ROB_Stalls_Percent_8_Bucket_4: 4442
Non-critical_ROB_Stalls_Percent_8_Bucket_4: 827
Critical_ROB_Stalls_Percent_8_Bucket_5: 2506
Non-critical_ROB_Stalls_Percent_8_Bucket_5: 515
Critical_ROB_Stalls_Percent_8_Bucket_6: 4287
Non-critical_ROB_Stalls_Percent_8_Bucket_6: 554
Average ROB occupancy Load Stall Begin: 40.4114
Average ROB occupancy Load Stall End: 46.0274
Min ROB occupancy Load Stall Begin: 1
Max ROB occupancy Load Stall Begin: 351
Min ROB occupancy Load Stall End: 1
Max ROB occupancy Load Stall End: 352
Average ROB occupancy Critical Load Stall Begin: 83.5389
Average ROB occupancy Critical Load Stall End: 89.5741
Min ROB occupancy Critical Load Stall Begin: 2
Max ROB occupancy Critical Load Stall Begin: 349
Min ROB occupancy Critical Load Stall End: 4
Max ROB occupancy Critical Load Stall End: 352
 ROB Load Stall Begin Bucket Count 0: 454886
 ROB Load Stall End Bucket Count 0: 429386
 ROB Critical Load Stall Begin Bucket Count 0: 8981
 ROB Critical Load Stall End Bucket Count 0: 8327
 ROB Load Stall Begin Bucket Count 1: 82988
 ROB Load Stall End Bucket Count 1: 98587
 ROB Critical Load Stall Begin Bucket Count 1: 650
 ROB Critical Load Stall End Bucket Count 1: 1280
 ROB Load Stall Begin Bucket Count 2: 38198
 ROB Load Stall End Bucket Count 2: 43558
 ROB Critical Load Stall Begin Bucket Count 2: 11304
 ROB Critical Load Stall End Bucket Count 2: 11214
 ROB Load Stall Begin Bucket Count 3: 7446
 ROB Load Stall End Bucket Count 3: 9885
 ROB Critical Load Stall Begin Bucket Count 3: 334
 ROB Critical Load Stall End Bucket Count 3: 421
 ROB Load Stall Begin Bucket Count 4: 4402
 ROB Load Stall End Bucket Count 4: 5269
 ROB Critical Load Stall Begin Bucket Count 4: 149
 ROB Critical Load Stall End Bucket Count 4: 175
 ROB Load Stall Begin Bucket Count 5: 2733
 ROB Load Stall End Bucket Count 5: 3021
 ROB Critical Load Stall Begin Bucket Count 5: 9
 ROB Critical Load Stall End Bucket Count 5: 8
 ROB Load Stall Begin Bucket Count 6: 3894
 ROB Load Stall End Bucket Count 6: 4841
 ROB Critical Load Stall Begin Bucket Count 6: 6
 ROB Critical Load Stall End Bucket Count 6: 8
PIST Tag Read Accesses: 408042
PIST Read Accesses: 204021
PIST Tag Write Accesses: 408042
PIST Write Accesses: 204021
Criticality detector called times: 268002
Max global_stall_cycles_count: 343412
Threshold Modified: 3 times, factor: -3
ITLB TOTAL     ACCESS:    9081272  HIT:    8858202  MISS:     223070  HIT %:    97.5436  MISS %:    2.45637   MPKI: 4.4614
ITLB LOAD TRANSLATION ACCESS:    7871714  HIT:    7796965  MISS:      74749  HIT %:    99.0504  MISS %:    0.94959   MPKI: 1.49498
ITLB TRANSLATION FROM L1D PREFETCHER ACCESS:    1209558  HIT:    1061237  MISS:     148321  HIT %:    87.7376  MISS %:    12.2624   MPKI: 2.96642
ITLB PREFETCH  REQUESTED:          0  ISSUED:          0  USEFUL:     117204  USELESS:      31124
ITLB USEFUL LOAD PREFETCHES:     117204 PREFETCH ISSUED TO LOWER LEVEL:          0  ACCURACY: inf
ITLB TIMELY PREFETCHES:     117204 LATE PREFETCHES: 1007 DROPPED PREFETCHES: 5607
ITLB PREFETCHES SAME FILL-ORIGIN LEVEL: 0 DIFFERENT FILL-ORIGIN LEVEL: 0
ITLB AVERAGE MISS LATENCY: 240446 cycles
ITLB RQ	ACCESS:   12426255	FORWARD:          0	MERGED:    3307887	TO_CACHE:    9118368

DTLB TOTAL     ACCESS:    9742556  HIT:    9167171  MISS:     575385  HIT %:    94.0941  MISS %:    5.90589   MPKI: 11.5077
DTLB LOAD TRANSLATION ACCESS:    9742556  HIT:    9167171  MISS:     575385  HIT %:    94.0941  MISS %:    5.90589   MPKI: 11.5077
DTLB PREFETCH  REQUESTED:          0  ISSUED:          0  USEFUL:          0  USELESS:          0
DTLB USEFUL LOAD PREFETCHES:          0 PREFETCH ISSUED TO LOWER LEVEL:          0  ACCURACY: -nan
DTLB TIMELY PREFETCHES:          0 LATE PREFETCHES: 0 DROPPED PREFETCHES: 0
DTLB PREFETCHES SAME FILL-ORIGIN LEVEL: 0 DIFFERENT FILL-ORIGIN LEVEL: 0
DTLB AVERAGE MISS LATENCY: 15.7278 cycles
DTLB RQ	ACCESS:   12282496	FORWARD:          0	MERGED:    2502758	TO_CACHE:    9779738

STLB TOTAL     ACCESS:     947902  HIT:     845302  MISS:     102600  HIT %:    89.1761  MISS %:    10.8239   MPKI: 2.052
STLB LOAD TRANSLATION ACCESS:     649127  HIT:     568551  MISS:      80576  HIT %:     87.587  MISS %:     12.413   MPKI: 1.61152
STLB TRANSLATION FROM L1D PREFETCHER ACCESS:     298775  HIT:     276751  MISS:      22024  HIT %:    92.6286  MISS %:    7.37143   MPKI: 0.44048
STLB PREFETCH  REQUESTED:          0  ISSUED:          0  USEFUL:      13152  USELESS:       8881
STLB USEFUL LOAD PREFETCHES:      13152 PREFETCH ISSUED TO LOWER LEVEL:          0  ACCURACY: inf
STLB TIMELY PREFETCHES:      13152 LATE PREFETCHES: 10 DROPPED PREFETCHES: 5607
STLB PREFETCHES SAME FILL-ORIGIN LEVEL: 0 DIFFERENT FILL-ORIGIN LEVEL: 0
STLB AVERAGE MISS LATENCY: 53.7384 cycles
STLB RQ	ACCESS:     990855	FORWARD:          0	MERGED:      37336	TO_CACHE:     953519

STLB Hit, L1D data hit: 0
STLB Hit, L2C data hit: 0
STLB Hit, LLC data hit: 0
STLB Hit, LLC data miss: 0
STLB STLB hints to L2: 0
L1D TOTAL     ACCESS:   12299654  HIT:   11610375  MISS:     689279  HIT %:    94.3959  MISS %:    5.60405   MPKI: 13.7856
L1D LOAD      ACCESS:    7284335  HIT:    6756325  MISS:     528010  HIT %:    92.7514  MISS %:    7.24857   MPKI: 10.5602
L1D RFO       ACCESS:    4839247  HIT:    4747979  MISS:      91268  HIT %:     98.114  MISS %:      1.886   MPKI: 1.82536
L1D PREFETCH  ACCESS:     176072  HIT:     106071  MISS:      70001  HIT %:     60.243  MISS %:     39.757   MPKI: 1.40002
L1D PREFETCH  REQUESTED:     373672  ISSUED:     373631  USEFUL:      24816  USELESS:      45188
L1D USEFUL LOAD PREFETCHES:      24816 PREFETCH ISSUED TO LOWER LEVEL:      73715  ACCURACY: 33.6648
L1D TIMELY PREFETCHES:      24816 LATE PREFETCHES: 3561 DROPPED PREFETCHES: 0
L1D PREFETCHES SAME FILL-ORIGIN LEVEL: 73715 DIFFERENT FILL-ORIGIN LEVEL: 0
L1D AVERAGE MISS LATENCY: 273486 cycles
L1D RQ	ACCESS:   11140620	FORWARD:          0	MERGED:    3741054	TO_CACHE:    7317097
L1D WQ	ACCESS:    5073610	FORWARD:      82514	MERGED:     108211	TO_CACHE:    4965399
L1D PQ	ACCESS:     186838	FORWARD:          0	MERGED:          0	TO_CACHE:     186793

L1D UNIQUE REGIONS ACCESSED: 0
L1D REGIONS CONFLICTS: 0
L1D Cross Page Prefetch Requests: 0
L1D Same Page Prefetch Requests: 308942
L1D ROI Sum of L1D PQ occupancy: 2423700
L1D PREFETCHES PUSHED FROM L2C: 0
L1I TOTAL     ACCESS:   12265158  HIT:   10373776  MISS:    1891382  HIT %:    84.5792  MISS %:    15.4208   MPKI: 37.8276
L1I LOAD      ACCESS:    9550090  HIT:    9269792  MISS:     280298  HIT %:     97.065  MISS %:    2.93503   MPKI: 5.60596
L1I PREFETCH  ACCESS:    2715068  HIT:    1103984  MISS:    1611084  HIT %:    40.6614  MISS %:    59.3386   MPKI: 32.2217
L1I PREFETCH  REQUESTED:    2954241  ISSUED:    2945398  USEFUL:    1042043  USELESS:     569038
L1I USEFUL LOAD PREFETCHES:    1042043 PREFETCH ISSUED TO LOWER LEVEL:    1645422  ACCURACY: 63.3298
L1I TIMELY PREFETCHES:    1042043 LATE PREFETCHES: 34285 DROPPED PREFETCHES: 18718
L1I PREFETCHES SAME FILL-ORIGIN LEVEL: 1645422 DIFFERENT FILL-ORIGIN LEVEL: 0
L1I AVERAGE MISS LATENCY: 933297 cycles
L1I RQ	ACCESS:   13819504	FORWARD:          0	MERGED:    4239066	TO_CACHE:    9580438
L1I PQ	ACCESS:    2945398	FORWARD:          0	MERGED:      99581	TO_CACHE:    2845817

BTB TOTAL     ACCESS:    5007119  HIT:    4225540  MISS:     781579  HIT %:    84.3906  MISS %:    15.6094   MPKI: 15.6316
BTB BRANCH_DIRECT_JUMP	ACCESS:     451601  HIT:     395730  MISS:      55871
BTB BRANCH_INDIRECT	ACCESS:     151580  HIT:     115440  MISS:      36140
BTB BRANCH_CONDITIONAL	ACCESS:    2656300  HIT:    2427735  MISS:     228565
BTB BRANCH_DIRECT_CALL	ACCESS:     647826  HIT:     542970  MISS:     104856
BTB BRANCH_INDIRECT_CALL	ACCESS:     211373  HIT:     173798  MISS:      37575
BTB BRANCH_RETURN	ACCESS:     888439  HIT:     569867  MISS:     318572
BTB BRANCH_OTHER ACCESS:          0  HIT:          0  MISS:          0

L2C TOTAL     ACCESS:    3892427  HIT:    2449061  MISS:    1443366  HIT %:    62.9186  MISS %:    37.0814   MPKI: 28.8673
L2C LOAD      ACCESS:     770445  HIT:     436461  MISS:     333984  HIT %:    56.6505  MISS %:    43.3495   MPKI: 6.67968
L2C DATA LOAD MPKI: 4.72454
L2C INSTRUCTION LOAD MPKI: 1.95514
L2C RFO       ACCESS:      91217  HIT:      42896  MISS:      48321  HIT %:    47.0263  MISS %:    52.9737   MPKI: 0.96642
L2C PREFETCH  ACCESS:    2638457  HIT:    1659224  MISS:     979233  HIT %:    62.8861  MISS %:    37.1139   MPKI: 19.5847
L2C DATA PREFETCH MPKI: 7.90956
L2C INSTRUCTION PREFETCH MPKI: 11.6751
L2C WRITEBACK ACCESS:     251729  HIT:     231496  MISS:      20233  HIT %:    91.9624  MISS %:    8.03761   MPKI: 0.40466
L2C LOAD TRANSLATION ACCESS:     105658  HIT:      54602  MISS:      51056  HIT %:    51.6781  MISS %:    48.3219   MPKI: 1.02112
L2C TRANSLATION FROM L1D PREFETCHER ACCESS:      34921  HIT:      24382  MISS:      10539  HIT %:    69.8205  MISS %:    30.1795   MPKI: 0.21078
L2C PREFETCH  REQUESTED:    1982643  ISSUED:    1981913  USEFUL:      91141  USELESS:     898776
L2C USEFUL LOAD PREFETCHES:      91141 PREFETCH ISSUED TO LOWER LEVEL:     990423  ACCURACY: 9.20223
L2C TIMELY PREFETCHES:      91141 LATE PREFETCHES: 11190 DROPPED PREFETCHES: 0
L2C PREFETCHES SAME FILL-ORIGIN LEVEL: 403883 DIFFERENT FILL-ORIGIN LEVEL: 0
L2C AVERAGE MISS LATENCY: 44.2173 cycles
L2C RQ	ACCESS:    1002261	FORWARD:          0	MERGED:          0	TO_CACHE:    1002241
L2C WQ	ACCESS:     251729	FORWARD:         22	MERGED:          0	TO_CACHE:     251729
L2C PQ	ACCESS:    3700892	FORWARD:          0	MERGED:     998969	TO_CACHE:    2701921

L2C Instructions Evicting Data 330309
L2C Translations Evicting Data 30579
L2C Data Evicting Data 329906
L2C Instructions Evicting Instructions 322884
L2C Translations Evicting Instructions 28170
L2C Data Evicting Instructions 320591
L2C Instructions Evicting Translations 28319
L2C Translations Evicting Translations 2846
L2C Data Evicting Translations 29529
L2C Dense regions hint from L2: 0
PSCL5 TOTAL     ACCESS:     108207  HIT:     108207  MISS:          0  HIT %:        100  MISS %:          0   MPKI: 0
PSCL5 LOAD TRANSLATION ACCESS:      80566  HIT:      80566  MISS:          0  HIT %:        100  MISS %:          0   MPKI: 0
PSCL5 TRANSLATION FROM L1D PREFETCHER ACCESS:      27641  HIT:      27641  MISS:          0  HIT %:        100  MISS %:          0   MPKI: 0
PSCL5 PREFETCH  REQUESTED:          0  ISSUED:          0  USEFUL:          0  USELESS:          0
PSCL5 USEFUL LOAD PREFETCHES:          0 PREFETCH ISSUED TO LOWER LEVEL:          0  ACCURACY: -nan
PSCL5 TIMELY PREFETCHES:          0 LATE PREFETCHES: 0 DROPPED PREFETCHES: 0
PSCL5 PREFETCHES SAME FILL-ORIGIN LEVEL: 0 DIFFERENT FILL-ORIGIN LEVEL: 0

PSCL4 TOTAL     ACCESS:     101924  HIT:     101634  MISS:        290  HIT %:    99.7155  MISS %:   0.284526   MPKI: 0.0058
PSCL4 LOAD TRANSLATION ACCESS:      76176  HIT:      75886  MISS:        290  HIT %:    99.6193  MISS %:   0.380697   MPKI: 0.0058
PSCL4 TRANSLATION FROM L1D PREFETCHER ACCESS:      25748  HIT:      25748  MISS:          0  HIT %:        100  MISS %:          0   MPKI: 0
PSCL4 PREFETCH  REQUESTED:          0  ISSUED:          0  USEFUL:          0  USELESS:          0
PSCL4 USEFUL LOAD PREFETCHES:          0 PREFETCH ISSUED TO LOWER LEVEL:          0  ACCURACY: -nan
PSCL4 TIMELY PREFETCHES:          0 LATE PREFETCHES: 0 DROPPED PREFETCHES: 0
PSCL4 PREFETCHES SAME FILL-ORIGIN LEVEL: 0 DIFFERENT FILL-ORIGIN LEVEL: 0

PSCL3 TOTAL     ACCESS:     106559  HIT:     105719  MISS:        840  HIT %:    99.2117  MISS %:   0.788296   MPKI: 0.0168
PSCL3 LOAD TRANSLATION ACCESS:      80168  HIT:      79328  MISS:        840  HIT %:    98.9522  MISS %:     1.0478   MPKI: 0.0168
PSCL3 TRANSLATION FROM L1D PREFETCHER ACCESS:      26391  HIT:      26391  MISS:          0  HIT %:        100  MISS %:          0   MPKI: 0
PSCL3 PREFETCH  REQUESTED:          0  ISSUED:          0  USEFUL:          0  USELESS:          0
PSCL3 USEFUL LOAD PREFETCHES:          0 PREFETCH ISSUED TO LOWER LEVEL:          0  ACCURACY: -nan
PSCL3 TIMELY PREFETCHES:          0 LATE PREFETCHES: 0 DROPPED PREFETCHES: 0
PSCL3 PREFETCHES SAME FILL-ORIGIN LEVEL: 0 DIFFERENT FILL-ORIGIN LEVEL: 0

PSCL2 TOTAL     ACCESS:     105118  HIT:      77929  MISS:      27189  HIT %:    74.1348  MISS %:    25.8652   MPKI: 0.54378
PSCL2 LOAD TRANSLATION ACCESS:      83555  HIT:      56366  MISS:      27189  HIT %:    67.4598  MISS %:    32.5402   MPKI: 0.54378
PSCL2 TRANSLATION FROM L1D PREFETCHER ACCESS:      21563  HIT:      21563  MISS:          0  HIT %:        100  MISS %:          0   MPKI: 0
PSCL2 PREFETCH  REQUESTED:          0  ISSUED:          0  USEFUL:          0  USELESS:          0
PSCL2 USEFUL LOAD PREFETCHES:          0 PREFETCH ISSUED TO LOWER LEVEL:          0  ACCURACY: -nan
PSCL2 TIMELY PREFETCHES:          0 LATE PREFETCHES: 0 DROPPED PREFETCHES: 0
PSCL2 PREFETCHES SAME FILL-ORIGIN LEVEL: 0 DIFFERENT FILL-ORIGIN LEVEL: 0

LLC TOTAL     ACCESS:    1561109  HIT:    1422037  MISS:     139072  HIT %:    91.0915  MISS %:    8.90854   MPKI: 2.78144
LLC LOAD      ACCESS:     322996  HIT:     291861  MISS:      31135  HIT %:    90.3606  MISS %:    9.63944   MPKI: 0.6227
LLC RFO       ACCESS:      48116  HIT:      29637  MISS:      18479  HIT %:    61.5949  MISS %:    38.4051   MPKI: 0.36958
LLC PREFETCH  ACCESS:     990423  HIT:     906717  MISS:      83706  HIT %:    91.5485  MISS %:    8.45154   MPKI: 1.67412
LLC WRITEBACK ACCESS:     137979  HIT:     135255  MISS:       2724  HIT %:    98.0258  MISS %:    1.97421   MPKI: 0.05448
LLC LOAD TRANSLATION ACCESS:      51056  HIT:      48191  MISS:       2865  HIT %:    94.3885  MISS %:    5.61149   MPKI: 0.0573
LLC TRANSLATION FROM L1D PREFETCHER ACCESS:      10539  HIT:      10376  MISS:        163  HIT %:    98.4534  MISS %:    1.54664   MPKI: 0.00326
LLC PREFETCH  REQUESTED:          0  ISSUED:          0  USEFUL:       5060  USELESS:      75711
LLC USEFUL LOAD PREFETCHES:       5060 PREFETCH ISSUED TO LOWER LEVEL:      83706  ACCURACY: 6.04497
LLC TIMELY PREFETCHES:       5060 LATE PREFETCHES: 0 DROPPED PREFETCHES: 0
LLC PREFETCHES SAME FILL-ORIGIN LEVEL: 0 DIFFERENT FILL-ORIGIN LEVEL: 0
LLC AVERAGE MISS LATENCY: 156.213 cycles
LLC RQ	ACCESS:     432710	FORWARD:          0	MERGED:          0	TO_CACHE:     432707
LLC WQ	ACCESS:     137979	FORWARD:          3	MERGED:          0	TO_CACHE:     137979
LLC PQ	ACCESS:     990423	FORWARD:          0	MERGED:          0	TO_CACHE:     990423

LLC Dense regions hint to LLC: 0

RAW hits: 956050
Loads Generated: 12096670
Loads sent to L1D: 11140620
Stores Generated: 5073603
Stores sent to L1D: 5073610
Major fault: 0 Minor fault: 7361
Allocated PAGES: 7361
I-Shadow cache 408 bytes
Touched + WorthPF tables 6144 bytes 
MMA filter 174 bytes 
FNL filter 272 bytes 
TOTAL PREFETCHER STORAGE SIZE: 25174 bytes
CPU 0 L1I next line prefetcher final stats

stream: 
stream:times selected: 432368
stream:pref_filled: 72027
stream:pref_useful: 20750
stream:pref_late: 3048
stream:misses: 5859
stream:misses_by_poll: 0

CS: 
CS:times selected: 41009
CS:pref_filled: 23276
CS:pref_useful: 19750
CS:pref_late: 2881
CS:misses: 6038
CS:misses_by_poll: 8

CPLX: 
CPLX:times selected: 388313
CPLX:pref_filled: 26796
CPLX:pref_useful: 4522
CPLX:pref_late: 719
CPLX:misses: 33903
CPLX:misses_by_poll: 3

NL_L1: 
NL:times selected: 3193
NL:pref_filled: 854
NL:pref_useful: 96
NL:pref_late: 29
NL:misses: 390
NL:misses_by_poll: 0

total selections: 864883
total_filled: 70001
total_useful: 24816
total_late: 7450
total_polluted: 11
total_misses_after_warmup: 560772
conflicts: 2956354
Degree Incremented Times: 79802
Degree Decremented Times: 191459

L1 IP Table Write Accesses: 4066691
L1 IP Table Read Accesses: 1110337
L1 RST Write Accesses: 264929
L1 RST Read Accesses: 529858
L1 CSPT Write Accesses: 264929
L1 CSPT Read Accesses: 508965
L1 RR Filter Tag Write Accesses: 186879
L1 RR Filter Tag Read Accesses: 10860395
L1 IP Table Tag Write Accesses: 7317097
L1 IP Table Tag Read Accesses: 7317097
L1 RST Tag Write Accesses: 0
L1 RST Tag Read Accesses: 2368484
L1 RR Filter Write Accesses: 0
L1 RR Filter Read Accesses: 387694
test: 136915
L2 IP Table Read Accesses: 2248384
L2 IP Table Write Accesses: 4121385
L2 IP Table Tag Read Accesses: 2118566
L2 IP Table Tag Write Accesses: 2118566

DRAM Statistics
 CHANNEL 0
 RQ ROW_BUFFER_HIT:      25968  ROW_BUFFER_MISS:     110376
 DBUS_CONGESTED:        145
 WQ ROW_BUFFER_HIT:      10955  ROW_BUFFER_MISS:      50296  FULL:          0

 AVG_CONGESTED_CYCLE: 4
 All warmup complete: 2
Channel 0 Bank busy for read cycles: 0
Channel 0 Bank busy for write cycles: 0
Channel 0
Rank 0
0banks busy for read cycles: 58873802
0banks busy for write cycles: 23345
1banks busy for read cycles: 6504938
1banks busy for write cycles: 2969614
2banks busy for read cycles: 2300747
2banks busy for write cycles: 1083570
3banks busy for read cycles: 759430
3banks busy for write cycles: 466509
4banks busy for read cycles: 366426
4banks busy for write cycles: 259855
5banks busy for read cycles: 192405
5banks busy for write cycles: 182726
6banks busy for read cycles: 131942
6banks busy for write cycles: 156344
7banks busy for read cycles: 109485
7banks busy for write cycles: 156889
8banks busy for read cycles: 61643
8banks busy for write cycles: 225270

CPU 0 Branch Prediction Accuracy: 97.5565% MPKI: 4.59006 Average ROB Occupancy at Mispredict: 36.1597
Branch types
NOT_BRANCH: 40607200 81.2144%
BRANCH_DIRECT_JUMP: 451601 0.903202%
BRANCH_INDIRECT: 151580 0.30316%
BRANCH_CONDITIONAL: 7041635 14.0833%
BRANCH_DIRECT_CALL: 647826 1.29565%
BRANCH_INDIRECT_CALL: 211373 0.422746%
BRANCH_RETURN: 888439 1.77688%
BRANCH_OTHER: 0 0%

DRAM PAGES: 1048576
Allocated PAGES: 7361
