
*** ChampSim Multicore Out-of-Order Simulator ***

Warmup Instructions: 50000000
Simulation Instructions: 50000000
Number of CPUs: 1
LLC sets: 2048
LLC ways: 16
Off-chip DRAM Size: 4096 MB Channels: 1 Width: 64-bit Data Rate: 6400 MT/s
CPU 0 runs ../IPC-traces//server_023.champsimtrace.xz
.xz
NUM_OF_IPS_IN_CRITICAL_IP_TRAINING: 64
NUM_OF_CRITICAL_IP_TRAINING_TABLE_WAYS: 2
NUM_OF_CRITICAL_IP_TRAINING_TABLE_SETS: 32
WOBBLY_CRITICAL_IP_CACHE_SETS: 32
WOBBLY_CRITICAL_IP_CACHE_WAYS: 4
BTB has LRU replacement policy
ITLB has LRU replacement policy
DTLB has LRU replacement policy
STLB has LRU replacement policy
CPU 0 L1I next line prefetcher
L1I has LRU replacement policy
IP Table Entries: 64
L1D has LRU replacement policy
Initialize SRRIP state for L2C
Initialize DRRIP state for LLC
Heartbeat CPU 0 instructions: 10000001 cycles: 2872154 heartbeat IPC: 3.48171 cumulative IPC: 3.48171 (Simulation time: 0 hr 5 min 0 sec) 
Heartbeat CPU 0 instructions: 20000000 cycles: 5740670 heartbeat IPC: 3.48612 cumulative IPC: 3.48391 (Simulation time: 0 hr 9 min 50 sec) 
Heartbeat CPU 0 instructions: 30000002 cycles: 8605854 heartbeat IPC: 3.49018 cumulative IPC: 3.486 (Simulation time: 0 hr 14 min 27 sec) 
Heartbeat CPU 0 instructions: 40000002 cycles: 11473813 heartbeat IPC: 3.4868 cumulative IPC: 3.4862 (Simulation time: 0 hr 18 min 50 sec) 
Heartbeat CPU 0 instructions: 50000001 cycles: 14342523 heartbeat IPC: 3.48589 cumulative IPC: 3.48614 (Simulation time: 0 hr 22 min 51 sec) 

Warmup complete CPU 0 instructions: 50000001 cycles: 14342523 (Simulation time: 0 hr 22 min 51 sec) 

% increase in all ip prefetch 406.52
% increase in all ip prefetch -4.21602
Heartbeat CPU 0 instructions: 60000000 cycles: 30167303 heartbeat IPC: 0.63192 cumulative IPC: 0.63192 (Simulation time: 0 hr 26 min 33 sec) 
Heartbeat CPU 0 instructions: 70000000 cycles: 46256323 heartbeat IPC: 0.621542 cumulative IPC: 0.626688 (Simulation time: 0 hr 30 min 5 sec) 
Heartbeat CPU 0 instructions: 80000000 cycles: 62096520 heartbeat IPC: 0.631305 cumulative IPC: 0.62822 (Simulation time: 0 hr 33 min 32 sec) 
Heartbeat CPU 0 instructions: 90000000 cycles: 77431825 heartbeat IPC: 0.65209 cumulative IPC: 0.634022 (Simulation time: 0 hr 36 min 59 sec) 
Heartbeat CPU 0 instructions: 100000001 cycles: 93261204 heartbeat IPC: 0.631737 cumulative IPC: 0.633564 (Simulation time: 0 hr 40 min 1 sec) 
Finished CPU 0 instructions: 50000000 cycles: 78918681 cumulative IPC: 0.633564 (Simulation time: 0 hr 40 min 1 sec) 

ChampSim completed all CPUs

Region of Interest Statistics

CPU 0 cumulative IPC: 0.633564 instructions: 50000000 cycles: 78918681

CPU 0 Average Load ROB stall cycles: 1.99202e+07
CPU 0 Fraction of times ROB stalled by Loads: 36.9514
CPU 0 Percentage of Load stall cycles in Total stall cycles: 2.80818e+08
Issued all: 27946809
Issued LT all: 22032065
rob_not_full_when_issued_lt_all: 21608047
Issued LT one: 17202193
rob_not_full_when_issued_lt_one: 16832023
 Total stall cycles: 65557996
 Total load stall cycles: 184098523215881
CPU 0 NUM of IPS identified critical: 0
CPU 0 Num of Load IPs stalling ROB: 13686
Threshold modification factor: -1
Max PIST entries: 64
Min PIST entries: 0
Avg PIST entries: 31.99
Trouble in retire width: 0.894626
MaC = Marked as critical.
lt_50_percent_before_Mac: 0
gt_90_percent_before_Mac: 0
gt_75_percent_before_Mac: 0
gt_50_percent_before_Mac: 0
stall_proportion_bin_same_before_after: 0
stall_proportion_bin_lower_before_after: 0
stall_proportion_bin_upper_before_after: 0
average_stall_proportion_before: -nan
average_stall_proportion_after: -nan
Critical IP stalls, total frequency: 0
Non-critical IP stalls, total frequency: 3414982
Total Freq all stalling IPs: 3414982
stat_90_percent_critical_ip_stalls_freq: 3073705
stat_90_percent_non_critical_ip_stalls_freq: 341277
Critical_IP_ROB_Stalls_Bucket_0: 0
Non-critical_IP_ROB_Stalls_Bucket_0: 2364487
Critical_IP_ROB_Stalls_Bucket_1: 0
Non-critical_IP_ROB_Stalls_Bucket_1: 698886
Critical_IP_ROB_Stalls_Bucket_2: 0
Non-critical_IP_ROB_Stalls_Bucket_2: 241900
Critical_IP_ROB_Stalls_Bucket_3: 0
Non-critical_IP_ROB_Stalls_Bucket_3: 58361
Critical_IP_ROB_Stalls_Bucket_4: 0
Non-critical_IP_ROB_Stalls_Bucket_4: 20235
Critical_IP_ROB_Stalls_Bucket_5: 0
Non-critical_IP_ROB_Stalls_Bucket_5: 9350
Critical_IP_ROB_Stalls_Bucket_6: 0
Non-critical_IP_ROB_Stalls_Bucket_6: 21763
0 => IPs accounting for >50 percent of stalls, 1 => 55, 2 => 60, 3 => 65 and so on till 90.
percent50: 50.0188 num IPs:  388
percent55: 55.0259 num IPs: 563
percent60: 60.0068 num IPs: 800
percent65: 65.0038 num IPs: 1067
percent70: 70.0123 num IPs: 1372
percent75: 75.007 num IPs: 1739
percent80: 80.0045 num IPs: 2241
percent85: 85.0066 num IPs: 2776
percent90: 90.0059 num IPs: 3348
Critical_ROB_Stalls_Percent_0_Bucket_0: 968438
Non-critical_ROB_Stalls_Percent_0_Bucket_0: 1396049
Critical_ROB_Stalls_Percent_0_Bucket_1: 461102
Non-critical_ROB_Stalls_Percent_0_Bucket_1: 237784
Critical_ROB_Stalls_Percent_0_Bucket_2: 184748
Non-critical_ROB_Stalls_Percent_0_Bucket_2: 57152
Critical_ROB_Stalls_Percent_0_Bucket_3: 48369
Non-critical_ROB_Stalls_Percent_0_Bucket_3: 9992
Critical_ROB_Stalls_Percent_0_Bucket_4: 17274
Non-critical_ROB_Stalls_Percent_0_Bucket_4: 2961
Critical_ROB_Stalls_Percent_0_Bucket_5: 8292
Non-critical_ROB_Stalls_Percent_0_Bucket_5: 1058
Critical_ROB_Stalls_Percent_0_Bucket_6: 19910
Non-critical_ROB_Stalls_Percent_0_Bucket_6: 1853
Critical_ROB_Stalls_Percent_1_Bucket_0: 1079633
Non-critical_ROB_Stalls_Percent_1_Bucket_0: 1284854
Critical_ROB_Stalls_Percent_1_Bucket_1: 503171
Non-critical_ROB_Stalls_Percent_1_Bucket_1: 195715
Critical_ROB_Stalls_Percent_1_Bucket_2: 199393
Non-critical_ROB_Stalls_Percent_1_Bucket_2: 42507
Critical_ROB_Stalls_Percent_1_Bucket_3: 50947
Non-critical_ROB_Stalls_Percent_1_Bucket_3: 7414
Critical_ROB_Stalls_Percent_1_Bucket_4: 17720
Non-critical_ROB_Stalls_Percent_1_Bucket_4: 2515
Critical_ROB_Stalls_Percent_1_Bucket_5: 8304
Non-critical_ROB_Stalls_Percent_1_Bucket_5: 1046
Critical_ROB_Stalls_Percent_1_Bucket_6: 19957
Non-critical_ROB_Stalls_Percent_1_Bucket_6: 1806
Critical_ROB_Stalls_Percent_2_Bucket_0: 1207936
Non-critical_ROB_Stalls_Percent_2_Bucket_0: 1156551
Critical_ROB_Stalls_Percent_2_Bucket_1: 532968
Non-critical_ROB_Stalls_Percent_2_Bucket_1: 165918
Critical_ROB_Stalls_Percent_2_Bucket_2: 209754
Non-critical_ROB_Stalls_Percent_2_Bucket_2: 32146
Critical_ROB_Stalls_Percent_2_Bucket_3: 52015
Non-critical_ROB_Stalls_Percent_2_Bucket_3: 6346
Critical_ROB_Stalls_Percent_2_Bucket_4: 18122
Non-critical_ROB_Stalls_Percent_2_Bucket_4: 2113
Critical_ROB_Stalls_Percent_2_Bucket_5: 8364
Non-critical_ROB_Stalls_Percent_2_Bucket_5: 986
Critical_ROB_Stalls_Percent_2_Bucket_6: 20060
Non-critical_ROB_Stalls_Percent_2_Bucket_6: 1703
Critical_ROB_Stalls_Percent_3_Bucket_0: 1341620
Non-critical_ROB_Stalls_Percent_3_Bucket_0: 1022867
Critical_ROB_Stalls_Percent_3_Bucket_1: 564538
Non-critical_ROB_Stalls_Percent_3_Bucket_1: 134348
Critical_ROB_Stalls_Percent_3_Bucket_2: 214641
Non-critical_ROB_Stalls_Percent_3_Bucket_2: 27259
Critical_ROB_Stalls_Percent_3_Bucket_3: 52450
Non-critical_ROB_Stalls_Percent_3_Bucket_3: 5911
Critical_ROB_Stalls_Percent_3_Bucket_4: 18162
Non-critical_ROB_Stalls_Percent_3_Bucket_4: 2073
Critical_ROB_Stalls_Percent_3_Bucket_5: 8373
Non-critical_ROB_Stalls_Percent_3_Bucket_5: 977
Critical_ROB_Stalls_Percent_3_Bucket_6: 20079
Non-critical_ROB_Stalls_Percent_3_Bucket_6: 1684
Critical_ROB_Stalls_Percent_4_Bucket_0: 1475755
Non-critical_ROB_Stalls_Percent_4_Bucket_0: 888732
Critical_ROB_Stalls_Percent_4_Bucket_1: 594182
Non-critical_ROB_Stalls_Percent_4_Bucket_1: 104704
Critical_ROB_Stalls_Percent_4_Bucket_2: 220258
Non-critical_ROB_Stalls_Percent_4_Bucket_2: 21642
Critical_ROB_Stalls_Percent_4_Bucket_3: 53406
Non-critical_ROB_Stalls_Percent_4_Bucket_3: 4955
Critical_ROB_Stalls_Percent_4_Bucket_4: 18342
Non-critical_ROB_Stalls_Percent_4_Bucket_4: 1893
Critical_ROB_Stalls_Percent_4_Bucket_5: 8437
Non-critical_ROB_Stalls_Percent_4_Bucket_5: 913
Critical_ROB_Stalls_Percent_4_Bucket_6: 20526
Non-critical_ROB_Stalls_Percent_4_Bucket_6: 1237
Critical_ROB_Stalls_Percent_5_Bucket_0: 1617705
Non-critical_ROB_Stalls_Percent_5_Bucket_0: 746782
Critical_ROB_Stalls_Percent_5_Bucket_1: 616556
Non-critical_ROB_Stalls_Percent_5_Bucket_1: 82330
Critical_ROB_Stalls_Percent_5_Bucket_2: 225020
Non-critical_ROB_Stalls_Percent_5_Bucket_2: 16880
Critical_ROB_Stalls_Percent_5_Bucket_3: 54556
Non-critical_ROB_Stalls_Percent_5_Bucket_3: 3805
Critical_ROB_Stalls_Percent_5_Bucket_4: 18537
Non-critical_ROB_Stalls_Percent_5_Bucket_4: 1698
Critical_ROB_Stalls_Percent_5_Bucket_5: 8478
Non-critical_ROB_Stalls_Percent_5_Bucket_5: 872
Critical_ROB_Stalls_Percent_5_Bucket_6: 20621
Non-critical_ROB_Stalls_Percent_5_Bucket_6: 1142
Critical_ROB_Stalls_Percent_6_Bucket_0: 1758978
Non-critical_ROB_Stalls_Percent_6_Bucket_0: 605509
Critical_ROB_Stalls_Percent_6_Bucket_1: 638434
Non-critical_ROB_Stalls_Percent_6_Bucket_1: 60452
Critical_ROB_Stalls_Percent_6_Bucket_2: 231525
Non-critical_ROB_Stalls_Percent_6_Bucket_2: 10375
Critical_ROB_Stalls_Percent_6_Bucket_3: 55158
Non-critical_ROB_Stalls_Percent_6_Bucket_3: 3203
Critical_ROB_Stalls_Percent_6_Bucket_4: 18709
Non-critical_ROB_Stalls_Percent_6_Bucket_4: 1526
Critical_ROB_Stalls_Percent_6_Bucket_5: 8559
Non-critical_ROB_Stalls_Percent_6_Bucket_5: 791
Critical_ROB_Stalls_Percent_6_Bucket_6: 20779
Non-critical_ROB_Stalls_Percent_6_Bucket_6: 984
Critical_ROB_Stalls_Percent_7_Bucket_0: 1910219
Non-critical_ROB_Stalls_Percent_7_Bucket_0: 454268
Critical_ROB_Stalls_Percent_7_Bucket_1: 655374
Non-critical_ROB_Stalls_Percent_7_Bucket_1: 43512
Critical_ROB_Stalls_Percent_7_Bucket_2: 233464
Non-critical_ROB_Stalls_Percent_7_Bucket_2: 8436
Critical_ROB_Stalls_Percent_7_Bucket_3: 55760
Non-critical_ROB_Stalls_Percent_7_Bucket_3: 2601
Critical_ROB_Stalls_Percent_7_Bucket_4: 18825
Non-critical_ROB_Stalls_Percent_7_Bucket_4: 1410
Critical_ROB_Stalls_Percent_7_Bucket_5: 8562
Non-critical_ROB_Stalls_Percent_7_Bucket_5: 788
Critical_ROB_Stalls_Percent_7_Bucket_6: 20779
Non-critical_ROB_Stalls_Percent_7_Bucket_6: 984
Critical_ROB_Stalls_Percent_8_Bucket_0: 2066892
Non-critical_ROB_Stalls_Percent_8_Bucket_0: 297595
Critical_ROB_Stalls_Percent_8_Bucket_1: 665817
Non-critical_ROB_Stalls_Percent_8_Bucket_1: 33069
Critical_ROB_Stalls_Percent_8_Bucket_2: 234780
Non-critical_ROB_Stalls_Percent_8_Bucket_2: 7120
Critical_ROB_Stalls_Percent_8_Bucket_3: 56411
Non-critical_ROB_Stalls_Percent_8_Bucket_3: 1950
Critical_ROB_Stalls_Percent_8_Bucket_4: 19476
Non-critical_ROB_Stalls_Percent_8_Bucket_4: 759
Critical_ROB_Stalls_Percent_8_Bucket_5: 8990
Non-critical_ROB_Stalls_Percent_8_Bucket_5: 360
Critical_ROB_Stalls_Percent_8_Bucket_6: 21339
Non-critical_ROB_Stalls_Percent_8_Bucket_6: 424
Average ROB occupancy Load Stall Begin: 38.3085
Average ROB occupancy Load Stall End: 46.5129
Min ROB occupancy Load Stall Begin: 1
Max ROB occupancy Load Stall Begin: 352
Min ROB occupancy Load Stall End: 1
Max ROB occupancy Load Stall End: 352
Average ROB occupancy Critical Load Stall Begin: -nan
Average ROB occupancy Critical Load Stall End: -nan
Min ROB occupancy Critical Load Stall Begin: 400
Max ROB occupancy Critical Load Stall Begin: 0
Min ROB occupancy Critical Load Stall End: 400
Max ROB occupancy Critical Load Stall End: 0
 ROB Load Stall Begin Bucket Count 0: 2595004
 ROB Load Stall End Bucket Count 0: 2364487
 ROB Critical Load Stall Begin Bucket Count 0: 0
 ROB Critical Load Stall End Bucket Count 0: 0
 ROB Load Stall Begin Bucket Count 1: 553851
 ROB Load Stall End Bucket Count 1: 698886
 ROB Critical Load Stall Begin Bucket Count 1: 0
 ROB Critical Load Stall End Bucket Count 1: 0
 ROB Load Stall Begin Bucket Count 2: 178974
 ROB Load Stall End Bucket Count 2: 241900
 ROB Critical Load Stall Begin Bucket Count 2: 0
 ROB Critical Load Stall End Bucket Count 2: 0
 ROB Load Stall Begin Bucket Count 3: 41559
 ROB Load Stall End Bucket Count 3: 58361
 ROB Critical Load Stall Begin Bucket Count 3: 0
 ROB Critical Load Stall End Bucket Count 3: 0
 ROB Load Stall Begin Bucket Count 4: 16487
 ROB Load Stall End Bucket Count 4: 20235
 ROB Critical Load Stall Begin Bucket Count 4: 0
 ROB Critical Load Stall End Bucket Count 4: 0
 ROB Load Stall Begin Bucket Count 5: 8352
 ROB Load Stall End Bucket Count 5: 9350
 ROB Critical Load Stall Begin Bucket Count 5: 0
 ROB Critical Load Stall End Bucket Count 5: 0
 ROB Load Stall Begin Bucket Count 6: 20755
 ROB Load Stall End Bucket Count 6: 21763
 ROB Critical Load Stall Begin Bucket Count 6: 0
 ROB Critical Load Stall End Bucket Count 6: 0
PIST Tag Read Accesses: 2306264
PIST Read Accesses: 1153132
PIST Tag Write Accesses: 2306264
PIST Write Accesses: 1153132
Criticality detector called times: 3259832
Max global_stall_cycles_count: 1984721
Threshold Modified: 1 times, factor: -1
Sturdy critical IP cache stats: 
 Unused entries: 0
CIC Tag Read Accesses: 0
CIC Read Accesses: 0
CIC Tag Write Accesses: 0
CIC Write Accesses: 0
Wobbly critical IP cache stats: 
 Unused entries: 115
CIC Tag Read Accesses: 82710597
CIC Read Accesses: 0
CIC Tag Write Accesses: 1570
CIC Write Accesses: 0
ITLB TOTAL     ACCESS:    9978633  HIT:    9380530  MISS:     598103  HIT %:    94.0062  MISS %:    5.99384   MPKI: 11.9621
ITLB LOAD TRANSLATION ACCESS:    8216822  HIT:    8125991  MISS:      90831  HIT %:    98.8946  MISS %:    1.10543   MPKI: 1.81662
ITLB TRANSLATION FROM L1D PREFETCHER ACCESS:    1761811  HIT:    1254539  MISS:     507272  HIT %:    71.2074  MISS %:    28.7926   MPKI: 10.1454
ITLB PREFETCH  REQUESTED:          0  ISSUED:          0  USEFUL:     396428  USELESS:     110863
ITLB USEFUL LOAD PREFETCHES:     396428 PREFETCH ISSUED TO LOWER LEVEL:          0  ACCURACY: inf
ITLB TIMELY PREFETCHES:     396428 LATE PREFETCHES: 446 DROPPED PREFETCHES: 3044
ITLB PREFETCHES SAME FILL-ORIGIN LEVEL: 0 DIFFERENT FILL-ORIGIN LEVEL: 0
ITLB AVERAGE MISS LATENCY: 40949.4 cycles
ITLB RQ	ACCESS:   14460417	FORWARD:          0	MERGED:    4438865	TO_CACHE:   10021552

DTLB TOTAL     ACCESS:   11092741  HIT:   10641679  MISS:     451062  HIT %:    95.9337  MISS %:    4.06628   MPKI: 9.02124
DTLB LOAD TRANSLATION ACCESS:   11092741  HIT:   10641679  MISS:     451062  HIT %:    95.9337  MISS %:    4.06628   MPKI: 9.02124
DTLB PREFETCH  REQUESTED:          0  ISSUED:          0  USEFUL:          0  USELESS:          0
DTLB USEFUL LOAD PREFETCHES:          0 PREFETCH ISSUED TO LOWER LEVEL:          0  ACCURACY: -nan
DTLB TIMELY PREFETCHES:          0 LATE PREFETCHES: 0 DROPPED PREFETCHES: 0
DTLB PREFETCHES SAME FILL-ORIGIN LEVEL: 0 DIFFERENT FILL-ORIGIN LEVEL: 0
DTLB AVERAGE MISS LATENCY: 9.56472 cycles
DTLB RQ	ACCESS:   14448648	FORWARD:          0	MERGED:    3329742	TO_CACHE:   11118906

STLB TOTAL     ACCESS:    1076482  HIT:    1073417  MISS:       3065  HIT %:    99.7153  MISS %:   0.284724   MPKI: 0.0613
STLB LOAD TRANSLATION ACCESS:     541448  HIT:     538629  MISS:       2819  HIT %:    99.4794  MISS %:   0.520641   MPKI: 0.05638
STLB TRANSLATION FROM L1D PREFETCHER ACCESS:     535034  HIT:     534788  MISS:        246  HIT %:     99.954  MISS %:  0.0459784   MPKI: 0.00492
STLB PREFETCH  REQUESTED:          0  ISSUED:          0  USEFUL:        202  USELESS:         43
STLB USEFUL LOAD PREFETCHES:        202 PREFETCH ISSUED TO LOWER LEVEL:          0  ACCURACY: inf
STLB TIMELY PREFETCHES:        202 LATE PREFETCHES: 0 DROPPED PREFETCHES: 3045
STLB PREFETCHES SAME FILL-ORIGIN LEVEL: 0 DIFFERENT FILL-ORIGIN LEVEL: 0
STLB AVERAGE MISS LATENCY: 95.3285 cycles
STLB RQ	ACCESS:    1092198	FORWARD:          0	MERGED:      12671	TO_CACHE:    1079527

STLB Hit, L1D data hit: 0
STLB Hit, L2C data hit: 0
STLB Hit, LLC data hit: 0
STLB Hit, LLC data miss: 0
STLB STLB hints to L2: 0
L1D TOTAL     ACCESS:   14015447  HIT:   13044772  MISS:     970675  HIT %:    93.0742  MISS %:    6.92575   MPKI: 19.4135
L1D LOAD      ACCESS:    7903929  HIT:    7218459  MISS:     685470  HIT %:    91.3275  MISS %:    8.67252   MPKI: 13.7094
L1D RFO       ACCESS:    6075777  HIT:    5807372  MISS:     268405  HIT %:    95.5824  MISS %:    4.41762   MPKI: 5.3681
L1D PREFETCH  ACCESS:      35741  HIT:      18941  MISS:      16800  HIT %:    52.9952  MISS %:    47.0048   MPKI: 0.336
L1D PREFETCH  REQUESTED:      79984  ISSUED:      79984  USEFUL:       8056  USELESS:       8853
L1D USEFUL LOAD PREFETCHES:       8056 PREFETCH ISSUED TO LOWER LEVEL:      19357  ACCURACY: 41.618
L1D TIMELY PREFETCHES:       8056 LATE PREFETCHES: 2553 DROPPED PREFETCHES: 0
L1D PREFETCHES SAME FILL-ORIGIN LEVEL: 19357 DIFFERENT FILL-ORIGIN LEVEL: 0
L1D AVERAGE MISS LATENCY: 108937 cycles
L1D RQ	ACCESS:   11307938	FORWARD:          0	MERGED:    3243644	TO_CACHE:    7938313
L1D WQ	ACCESS:    6576972	FORWARD:     125989	MERGED:      66637	TO_CACHE:    6510335
L1D PQ	ACCESS:      39996	FORWARD:          0	MERGED:          0	TO_CACHE:      39988

L1D UNIQUE REGIONS ACCESSED: 0
L1D REGIONS CONFLICTS: 0
L1D Cross Page Prefetch Requests: 0
L1D Same Page Prefetch Requests: 661861
L1D ROI Sum of L1D PQ occupancy: 537828
L1D PREFETCHES PUSHED FROM L2C: 0
L1I TOTAL     ACCESS:   14316844  HIT:   10696674  MISS:    3620170  HIT %:    74.7139  MISS %:    25.2861   MPKI: 72.4034
L1I LOAD      ACCESS:    9510851  HIT:    9237202  MISS:     273649  HIT %:    97.1228  MISS %:    2.87723   MPKI: 5.47298
L1I PREFETCH  ACCESS:    4805993  HIT:    1459472  MISS:    3346521  HIT %:    30.3678  MISS %:    69.6322   MPKI: 66.9304
L1I PREFETCH  REQUESTED:    5046682  ISSUED:    5033787  USEFUL:    2247837  USELESS:    1098739
L1I USEFUL LOAD PREFETCHES:    2247837 PREFETCH ISSUED TO LOWER LEVEL:    3375850  ACCURACY: 66.5858
L1I TIMELY PREFETCHES:    2247837 LATE PREFETCHES: 29329 DROPPED PREFETCHES: 7542
L1I PREFETCHES SAME FILL-ORIGIN LEVEL: 3375850 DIFFERENT FILL-ORIGIN LEVEL: 0
L1I AVERAGE MISS LATENCY: 420726 cycles
L1I RQ	ACCESS:   13481686	FORWARD:          0	MERGED:    3946328	TO_CACHE:    9535358
L1I PQ	ACCESS:    5033787	FORWARD:          0	MERGED:     108728	TO_CACHE:    4925059

BTB TOTAL     ACCESS:    6310556  HIT:    4653136  MISS:    1657420  HIT %:    73.7358  MISS %:    26.2642   MPKI: 33.1484
BTB BRANCH_DIRECT_JUMP	ACCESS:     548369  HIT:     407711  MISS:     140658
BTB BRANCH_INDIRECT	ACCESS:     189802  HIT:     158498  MISS:      31304
BTB BRANCH_CONDITIONAL	ACCESS:    3531691  HIT:    3094098  MISS:     437593
BTB BRANCH_DIRECT_CALL	ACCESS:     862205  HIT:     537301  MISS:     324904
BTB BRANCH_INDIRECT_CALL	ACCESS:     158147  HIT:      91210  MISS:      66937
BTB BRANCH_RETURN	ACCESS:    1020342  HIT:     364318  MISS:     656024
BTB BRANCH_OTHER ACCESS:          0  HIT:          0  MISS:          0

L2C TOTAL     ACCESS:    5052579  HIT:    4583126  MISS:     469453  HIT %:    90.7086  MISS %:    9.29135   MPKI: 9.38906
L2C LOAD      ACCESS:     927211  HIT:     771052  MISS:     156159  HIT %:    83.1582  MISS %:    16.8418   MPKI: 3.12318
L2C DATA LOAD MPKI: 2.46864
L2C INSTRUCTION LOAD MPKI: 0.65454
L2C RFO       ACCESS:     268398  HIT:     207737  MISS:      60661  HIT %:    77.3989  MISS %:    22.6011   MPKI: 1.21322
L2C PREFETCH  ACCESS:    3395206  HIT:    3163090  MISS:     232116  HIT %:    93.1634  MISS %:    6.83658   MPKI: 4.64232
L2C DATA PREFETCH MPKI: 0.23058
L2C INSTRUCTION PREFETCH MPKI: 4.41174
L2C WRITEBACK ACCESS:     453263  HIT:     435179  MISS:      18084  HIT %:    96.0103  MISS %:    3.98974   MPKI: 0.36168
L2C LOAD TRANSLATION ACCESS:       3052  HIT:        926  MISS:       2126  HIT %:    30.3408  MISS %:    69.6592   MPKI: 0.04252
L2C TRANSLATION FROM L1D PREFETCHER ACCESS:       5449  HIT:       5142  MISS:        307  HIT %:    94.3659  MISS %:    5.63406   MPKI: 0.00614
L2C PREFETCH  REQUESTED:          0  ISSUED:          0  USEFUL:       8781  USELESS:     224844
L2C USEFUL LOAD PREFETCHES:       8781 PREFETCH ISSUED TO LOWER LEVEL:     232116  ACCURACY: 3.78302
L2C TIMELY PREFETCHES:       8781 LATE PREFETCHES: 0 DROPPED PREFETCHES: 0
L2C PREFETCHES SAME FILL-ORIGIN LEVEL: 0 DIFFERENT FILL-ORIGIN LEVEL: 0
L2C AVERAGE MISS LATENCY: 41.7428 cycles
L2C RQ	ACCESS:    1204139	FORWARD:          0	MERGED:          0	TO_CACHE:    1204110
L2C WQ	ACCESS:     453263	FORWARD:         30	MERGED:          0	TO_CACHE:     453263
L2C PQ	ACCESS:    3395207	FORWARD:          0	MERGED:          0	TO_CACHE:    3395206

L2C Instructions Evicting Data 107417
L2C Translations Evicting Data 1443
L2C Data Evicting Data 96963
L2C Instructions Evicting Instructions 144955
L2C Translations Evicting Instructions 964
L2C Data Evicting Instructions 97277
L2C Instructions Evicting Translations 942
L2C Translations Evicting Translations 26
L2C Data Evicting Translations 1382
L2C Dense regions hint from L2: 0
PSCL5 TOTAL     ACCESS:       6110  HIT:       6110  MISS:          0  HIT %:        100  MISS %:          0   MPKI: 0
PSCL5 LOAD TRANSLATION ACCESS:       2819  HIT:       2819  MISS:          0  HIT %:        100  MISS %:          0   MPKI: 0
PSCL5 TRANSLATION FROM L1D PREFETCHER ACCESS:       3291  HIT:       3291  MISS:          0  HIT %:        100  MISS %:          0   MPKI: 0
PSCL5 PREFETCH  REQUESTED:          0  ISSUED:          0  USEFUL:          0  USELESS:          0
PSCL5 USEFUL LOAD PREFETCHES:          0 PREFETCH ISSUED TO LOWER LEVEL:          0  ACCURACY: -nan
PSCL5 TIMELY PREFETCHES:          0 LATE PREFETCHES: 0 DROPPED PREFETCHES: 0
PSCL5 PREFETCHES SAME FILL-ORIGIN LEVEL: 0 DIFFERENT FILL-ORIGIN LEVEL: 0

PSCL4 TOTAL     ACCESS:       5735  HIT:       5719  MISS:         16  HIT %:     99.721  MISS %:   0.278989   MPKI: 0.00032
PSCL4 LOAD TRANSLATION ACCESS:       2481  HIT:       2465  MISS:         16  HIT %:    99.3551  MISS %:   0.644901   MPKI: 0.00032
PSCL4 TRANSLATION FROM L1D PREFETCHER ACCESS:       3254  HIT:       3254  MISS:          0  HIT %:        100  MISS %:          0   MPKI: 0
PSCL4 PREFETCH  REQUESTED:          0  ISSUED:          0  USEFUL:          0  USELESS:          0
PSCL4 USEFUL LOAD PREFETCHES:          0 PREFETCH ISSUED TO LOWER LEVEL:          0  ACCURACY: -nan
PSCL4 TIMELY PREFETCHES:          0 LATE PREFETCHES: 0 DROPPED PREFETCHES: 0
PSCL4 PREFETCHES SAME FILL-ORIGIN LEVEL: 0 DIFFERENT FILL-ORIGIN LEVEL: 0

PSCL3 TOTAL     ACCESS:       6050  HIT:       6034  MISS:         16  HIT %:    99.7355  MISS %:   0.264463   MPKI: 0.00032
PSCL3 LOAD TRANSLATION ACCESS:       2796  HIT:       2780  MISS:         16  HIT %:    99.4278  MISS %:   0.572246   MPKI: 0.00032
PSCL3 TRANSLATION FROM L1D PREFETCHER ACCESS:       3254  HIT:       3254  MISS:          0  HIT %:        100  MISS %:          0   MPKI: 0
PSCL3 PREFETCH  REQUESTED:          0  ISSUED:          0  USEFUL:          0  USELESS:          0
PSCL3 USEFUL LOAD PREFETCHES:          0 PREFETCH ISSUED TO LOWER LEVEL:          0  ACCURACY: -nan
PSCL3 TIMELY PREFETCHES:          0 LATE PREFETCHES: 0 DROPPED PREFETCHES: 0
PSCL3 PREFETCHES SAME FILL-ORIGIN LEVEL: 0 DIFFERENT FILL-ORIGIN LEVEL: 0

PSCL2 TOTAL     ACCESS:       4041  HIT:       3776  MISS:        265  HIT %:    93.4422  MISS %:    6.55778   MPKI: 0.0053
PSCL2 LOAD TRANSLATION ACCESS:       2852  HIT:       2587  MISS:        265  HIT %:    90.7083  MISS %:    9.29173   MPKI: 0.0053
PSCL2 TRANSLATION FROM L1D PREFETCHER ACCESS:       1189  HIT:       1189  MISS:          0  HIT %:        100  MISS %:          0   MPKI: 0
PSCL2 PREFETCH  REQUESTED:          0  ISSUED:          0  USEFUL:          0  USELESS:          0
PSCL2 USEFUL LOAD PREFETCHES:          0 PREFETCH ISSUED TO LOWER LEVEL:          0  ACCURACY: -nan
PSCL2 TIMELY PREFETCHES:          0 LATE PREFETCHES: 0 DROPPED PREFETCHES: 0
PSCL2 PREFETCHES SAME FILL-ORIGIN LEVEL: 0 DIFFERENT FILL-ORIGIN LEVEL: 0

LLC TOTAL     ACCESS:     535555  HIT:     496488  MISS:      39067  HIT %:    92.7053  MISS %:    7.29468   MPKI: 0.78134
LLC LOAD      ACCESS:     156158  HIT:     142235  MISS:      13923  HIT %:     91.084  MISS %:    8.91597   MPKI: 0.27846
LLC RFO       ACCESS:      60660  HIT:      41643  MISS:      19017  HIT %:    68.6499  MISS %:    31.3501   MPKI: 0.38034
LLC PREFETCH  ACCESS:     232116  HIT:     226800  MISS:       5316  HIT %:    97.7098  MISS %:    2.29023   MPKI: 0.10632
LLC WRITEBACK ACCESS:      84188  HIT:      83766  MISS:        422  HIT %:    99.4987  MISS %:   0.501259   MPKI: 0.00844
LLC LOAD TRANSLATION ACCESS:       2126  HIT:       1765  MISS:        361  HIT %:    83.0198  MISS %:    16.9802   MPKI: 0.00722
LLC TRANSLATION FROM L1D PREFETCHER ACCESS:        307  HIT:        279  MISS:         28  HIT %:    90.8795  MISS %:    9.12052   MPKI: 0.00056
LLC PREFETCH  REQUESTED:          0  ISSUED:          0  USEFUL:       1061  USELESS:      10809
LLC USEFUL LOAD PREFETCHES:       1061 PREFETCH ISSUED TO LOWER LEVEL:       5316  ACCURACY: 19.9586
LLC TIMELY PREFETCHES:       1061 LATE PREFETCHES: 0 DROPPED PREFETCHES: 0
LLC PREFETCHES SAME FILL-ORIGIN LEVEL: 0 DIFFERENT FILL-ORIGIN LEVEL: 0
LLC AVERAGE MISS LATENCY: 153.844 cycles
LLC RQ	ACCESS:     219253	FORWARD:          0	MERGED:          0	TO_CACHE:     219251
LLC WQ	ACCESS:      84188	FORWARD:          2	MERGED:          0	TO_CACHE:      84188
LLC PQ	ACCESS:     232116	FORWARD:          0	MERGED:          0	TO_CACHE:     232116

LLC Dense regions hint to LLC: 0

RAW hits: 922361
Loads Generated: 12230300
Loads sent to L1D: 11307938
Stores Generated: 6576955
Stores sent to L1D: 6576972
Major fault: 0 Minor fault: 2897
Allocated PAGES: 2897
I-Shadow cache 408 bytes
Touched + WorthPF tables 6144 bytes 
MMA filter 174 bytes 
FNL filter 272 bytes 
TOTAL PREFETCHER STORAGE SIZE: 25174 bytes
CPU 0 L1I next line prefetcher final stats

stream: 
stream:times selected: 860774
stream:pref_filled: 64962
stream:pref_useful: 14012
stream:pref_late: 3351
stream:misses: 4903
stream:misses_by_poll: 0

CS: 
CS:times selected: 135791
CS:pref_filled: 52072
CS:pref_useful: 38726
CS:pref_late: 2596
CS:misses: 8331
CS:misses_by_poll: 1

CPLX: 
CPLX:times selected: 723968
CPLX:pref_filled: 135221
CPLX:pref_useful: 54737
CPLX:pref_late: 4150
CPLX:misses: 48240
CPLX:misses_by_poll: 9

NL_L1: 
NL:times selected: 5867
NL:pref_filled: 181
NL:pref_useful: 37
NL:pref_late: 18
NL:misses: 165
NL:misses_by_poll: 0

total selections: 1726400
total_filled: 16800
total_useful: 8056
total_late: 11623
total_polluted: 10
total_misses_after_warmup: 34451
conflicts: 130198
Degree Incremented Times: 9001
Degree Decremented Times: 39357

L1 IP Table Write Accesses: 374183
L1 IP Table Read Accesses: 243985
L1 RST Write Accesses: 91801
L1 RST Read Accesses: 183602
L1 CSPT Write Accesses: 91801
L1 CSPT Read Accesses: 292507
L1 RR Filter Tag Write Accesses: 39996
L1 RR Filter Tag Read Accesses: 4806873
L1 IP Table Tag Write Accesses: 513447
L1 IP Table Tag Read Accesses: 513447
L1 RST Tag Write Accesses: 0
L1 RST Tag Read Accesses: 769742
L1 RR Filter Write Accesses: 0
L1 RR Filter Read Accesses: 186963
test: 100521

DRAM Statistics
 CHANNEL 0
 RQ ROW_BUFFER_HIT:      13935  ROW_BUFFER_MISS:      24701
 DBUS_CONGESTED:          4
 WQ ROW_BUFFER_HIT:       2103  ROW_BUFFER_MISS:      16152  FULL:          0

 AVG_CONGESTED_CYCLE: 5
 All warmup complete: 2
Channel 0 Bank busy for read cycles: 0
Channel 0 Bank busy for write cycles: 0
Channel 0
Rank 0
0banks busy for read cycles: 74803204
0banks busy for write cycles: 4752
1banks busy for read cycles: 1918655
1banks busy for write cycles: 682391
2banks busy for read cycles: 274529
2banks busy for write cycles: 240204
3banks busy for read cycles: 91471
3banks busy for write cycles: 149365
4banks busy for read cycles: 51955
4banks busy for write cycles: 124857
5banks busy for read cycles: 37441
5banks busy for write cycles: 104289
6banks busy for read cycles: 39229
6banks busy for write cycles: 86913
7banks busy for read cycles: 41868
7banks busy for write cycles: 73487
8banks busy for read cycles: 94555
8banks busy for write cycles: 99517

CPU 0 Branch Prediction Accuracy: 99.6798% MPKI: 0.58608 Average ROB Occupancy at Mispredict: 61.9039
Branch types
NOT_BRANCH: 40848097 81.6962%
BRANCH_DIRECT_JUMP: 548369 1.09674%
BRANCH_INDIRECT: 189802 0.379604%
BRANCH_CONDITIONAL: 6372725 12.7454%
BRANCH_DIRECT_CALL: 862205 1.72441%
BRANCH_INDIRECT_CALL: 158147 0.316294%
BRANCH_RETURN: 1020342 2.04068%
BRANCH_OTHER: 0 0%

DRAM PAGES: 1048576
Allocated PAGES: 2897
