
*** ChampSim Multicore Out-of-Order Simulator ***

Warmup Instructions: 50000000
Simulation Instructions: 50000000
Number of CPUs: 1
LLC sets: 2048
LLC ways: 16
Off-chip DRAM Size: 4096 MB Channels: 1 Width: 64-bit Data Rate: 6400 MT/s
CPU 0 runs ../IPC-traces//server_001.champsimtrace.xz
.xz
NUM_OF_IPS_IN_CRITICAL_IP_TRAINING: 64
NUM_OF_CRITICAL_IP_TRAINING_TABLE_WAYS: 2
NUM_OF_CRITICAL_IP_TRAINING_TABLE_SETS: 32
WOBBLY_CRITICAL_IP_CACHE_SETS: 32
WOBBLY_CRITICAL_IP_CACHE_WAYS: 4
BTB has LRU replacement policy
ITLB has LRU replacement policy
DTLB has LRU replacement policy
STLB has LRU replacement policy
CPU 0 L1I next line prefetcher
L1I has LRU replacement policy
IP Table Entries: 256
L1D has LRU replacement policy
Initialize SRRIP state for L2C
Initialize DRRIP state for LLC
Heartbeat CPU 0 instructions: 10000003 cycles: 2757632 heartbeat IPC: 3.6263 cumulative IPC: 3.6263 (Simulation time: 0 hr 2 min 49 sec) 
Heartbeat CPU 0 instructions: 20000003 cycles: 5521040 heartbeat IPC: 3.61872 cumulative IPC: 3.62251 (Simulation time: 0 hr 5 min 3 sec) 
Heartbeat CPU 0 instructions: 30000001 cycles: 8278211 heartbeat IPC: 3.62691 cumulative IPC: 3.62397 (Simulation time: 0 hr 7 min 14 sec) 
Heartbeat CPU 0 instructions: 40000001 cycles: 11040836 heartbeat IPC: 3.61975 cumulative IPC: 3.62291 (Simulation time: 0 hr 9 min 7 sec) 
Heartbeat CPU 0 instructions: 50000000 cycles: 13803853 heartbeat IPC: 3.61923 cumulative IPC: 3.62218 (Simulation time: 0 hr 10 min 56 sec) 

Warmup complete CPU 0 instructions: 50000004 cycles: 13803854 (Simulation time: 0 hr 10 min 56 sec) 

Heartbeat CPU 0 instructions: 60000002 cycles: 27961808 heartbeat IPC: 0.706317 cumulative IPC: 0.706317 (Simulation time: 0 hr 13 min 32 sec) 
Heartbeat CPU 0 instructions: 70000001 cycles: 41685592 heartbeat IPC: 0.728662 cumulative IPC: 0.717315 (Simulation time: 0 hr 15 min 53 sec) 
Heartbeat CPU 0 instructions: 80000003 cycles: 55092223 heartbeat IPC: 0.7459 cumulative IPC: 0.726597 (Simulation time: 0 hr 18 min 15 sec) 
Heartbeat CPU 0 instructions: 90000002 cycles: 69261507 heartbeat IPC: 0.705752 cumulative IPC: 0.721271 (Simulation time: 0 hr 20 min 37 sec) 
Heartbeat CPU 0 instructions: 100000003 cycles: 82651820 heartbeat IPC: 0.746809 cumulative IPC: 0.726238 (Simulation time: 0 hr 22 min 51 sec) 
Finished CPU 0 instructions: 50000003 cycles: 68847967 cumulative IPC: 0.726238 (Simulation time: 0 hr 22 min 51 sec) 

ChampSim completed all CPUs

Region of Interest Statistics

CPU 0 cumulative IPC: 0.726238 instructions: 50000003 cycles: 68847967

CPU 0 Average Load ROB stall cycles: 2.08068e+07
CPU 0 Fraction of times ROB stalled by Loads: 43.02
CPU 0 Percentage of Load stall cycles in Total stall cycles: 1.98822e+08
Issued all: 29995175
Issued LT all: 23819231
rob_not_full_when_issued_lt_all: 18699187
Issued LT one: 19804984
rob_not_full_when_issued_lt_one: 15311537
 Total stall cycles: 56014601
 Total load stall cycles: 111369222404452
CPU 0 NUM of IPS identified critical: 0
CPU 0 Num of Load IPs stalling ROB: 16339
Threshold modification factor: 0
Max PIST entries: 64
Min PIST entries: 0
Avg PIST entries: 32
Trouble in retire width: 0.887699
MaC = Marked as critical.
lt_50_percent_before_Mac: 0
gt_90_percent_before_Mac: 0
gt_75_percent_before_Mac: 0
gt_50_percent_before_Mac: 0
stall_proportion_bin_same_before_after: 0
stall_proportion_bin_lower_before_after: 0
stall_proportion_bin_upper_before_after: 0
average_stall_proportion_before: -nan
average_stall_proportion_after: -nan
Critical IP stalls, total frequency: 0
Non-critical IP stalls, total frequency: 2302667
Total Freq all stalling IPs: 2302667
stat_90_percent_critical_ip_stalls_freq: 2072475
stat_90_percent_non_critical_ip_stalls_freq: 230192
Critical_IP_ROB_Stalls_Bucket_0: 0
Non-critical_IP_ROB_Stalls_Bucket_0: 675674
Critical_IP_ROB_Stalls_Bucket_1: 0
Non-critical_IP_ROB_Stalls_Bucket_1: 693889
Critical_IP_ROB_Stalls_Bucket_2: 0
Non-critical_IP_ROB_Stalls_Bucket_2: 311730
Critical_IP_ROB_Stalls_Bucket_3: 0
Non-critical_IP_ROB_Stalls_Bucket_3: 162592
Critical_IP_ROB_Stalls_Bucket_4: 0
Non-critical_IP_ROB_Stalls_Bucket_4: 133303
Critical_IP_ROB_Stalls_Bucket_5: 0
Non-critical_IP_ROB_Stalls_Bucket_5: 121536
Critical_IP_ROB_Stalls_Bucket_6: 0
Non-critical_IP_ROB_Stalls_Bucket_6: 203943
0 => IPs accounting for >50 percent of stalls, 1 => 55, 2 => 60, 3 => 65 and so on till 90.
percent50: 50.0906 num IPs:  165
percent55: 55.0676 num IPs: 212
percent60: 60.0211 num IPs: 272
percent65: 65.034 num IPs: 348
percent70: 70.003 num IPs: 457
percent75: 75.0248 num IPs: 602
percent80: 80.0154 num IPs: 774
percent85: 85.0077 num IPs: 1041
percent90: 90.0034 num IPs: 1578
Critical_ROB_Stalls_Percent_0_Bucket_0: 198807
Non-critical_ROB_Stalls_Percent_0_Bucket_0: 476867
Critical_ROB_Stalls_Percent_0_Bucket_1: 384008
Non-critical_ROB_Stalls_Percent_0_Bucket_1: 309881
Critical_ROB_Stalls_Percent_0_Bucket_2: 177859
Non-critical_ROB_Stalls_Percent_0_Bucket_2: 133871
Critical_ROB_Stalls_Percent_0_Bucket_3: 89965
Non-critical_ROB_Stalls_Percent_0_Bucket_3: 72627
Critical_ROB_Stalls_Percent_0_Bucket_4: 73114
Non-critical_ROB_Stalls_Percent_0_Bucket_4: 60189
Critical_ROB_Stalls_Percent_0_Bucket_5: 81182
Non-critical_ROB_Stalls_Percent_0_Bucket_5: 40354
Critical_ROB_Stalls_Percent_0_Bucket_6: 148486
Non-critical_ROB_Stalls_Percent_0_Bucket_6: 55457
Critical_ROB_Stalls_Percent_1_Bucket_0: 252942
Non-critical_ROB_Stalls_Percent_1_Bucket_0: 422732
Critical_ROB_Stalls_Percent_1_Bucket_1: 416127
Non-critical_ROB_Stalls_Percent_1_Bucket_1: 277762
Critical_ROB_Stalls_Percent_1_Bucket_2: 189703
Non-critical_ROB_Stalls_Percent_1_Bucket_2: 122027
Critical_ROB_Stalls_Percent_1_Bucket_3: 96649
Non-critical_ROB_Stalls_Percent_1_Bucket_3: 65943
Critical_ROB_Stalls_Percent_1_Bucket_4: 76849
Non-critical_ROB_Stalls_Percent_1_Bucket_4: 56454
Critical_ROB_Stalls_Percent_1_Bucket_5: 83221
Non-critical_ROB_Stalls_Percent_1_Bucket_5: 38315
Critical_ROB_Stalls_Percent_1_Bucket_6: 152533
Non-critical_ROB_Stalls_Percent_1_Bucket_6: 51410
Critical_ROB_Stalls_Percent_2_Bucket_0: 294832
Non-critical_ROB_Stalls_Percent_2_Bucket_0: 380842
Critical_ROB_Stalls_Percent_2_Bucket_1: 453952
Non-critical_ROB_Stalls_Percent_2_Bucket_1: 239937
Critical_ROB_Stalls_Percent_2_Bucket_2: 206244
Non-critical_ROB_Stalls_Percent_2_Bucket_2: 105486
Critical_ROB_Stalls_Percent_2_Bucket_3: 103440
Non-critical_ROB_Stalls_Percent_2_Bucket_3: 59152
Critical_ROB_Stalls_Percent_2_Bucket_4: 78940
Non-critical_ROB_Stalls_Percent_2_Bucket_4: 54363
Critical_ROB_Stalls_Percent_2_Bucket_5: 87335
Non-critical_ROB_Stalls_Percent_2_Bucket_5: 34201
Critical_ROB_Stalls_Percent_2_Bucket_6: 157343
Non-critical_ROB_Stalls_Percent_2_Bucket_6: 46600
Critical_ROB_Stalls_Percent_3_Bucket_0: 347450
Non-critical_ROB_Stalls_Percent_3_Bucket_0: 328224
Critical_ROB_Stalls_Percent_3_Bucket_1: 479766
Non-critical_ROB_Stalls_Percent_3_Bucket_1: 214123
Critical_ROB_Stalls_Percent_3_Bucket_2: 216172
Non-critical_ROB_Stalls_Percent_3_Bucket_2: 95558
Critical_ROB_Stalls_Percent_3_Bucket_3: 111408
Non-critical_ROB_Stalls_Percent_3_Bucket_3: 51184
Critical_ROB_Stalls_Percent_3_Bucket_4: 85751
Non-critical_ROB_Stalls_Percent_3_Bucket_4: 47552
Critical_ROB_Stalls_Percent_3_Bucket_5: 94338
Non-critical_ROB_Stalls_Percent_3_Bucket_5: 27198
Critical_ROB_Stalls_Percent_3_Bucket_6: 162631
Non-critical_ROB_Stalls_Percent_3_Bucket_6: 41312
Critical_ROB_Stalls_Percent_4_Bucket_0: 384192
Non-critical_ROB_Stalls_Percent_4_Bucket_0: 291482
Critical_ROB_Stalls_Percent_4_Bucket_1: 506908
Non-critical_ROB_Stalls_Percent_4_Bucket_1: 186981
Critical_ROB_Stalls_Percent_4_Bucket_2: 235381
Non-critical_ROB_Stalls_Percent_4_Bucket_2: 76349
Critical_ROB_Stalls_Percent_4_Bucket_3: 117428
Non-critical_ROB_Stalls_Percent_4_Bucket_3: 45164
Critical_ROB_Stalls_Percent_4_Bucket_4: 96654
Non-critical_ROB_Stalls_Percent_4_Bucket_4: 36649
Critical_ROB_Stalls_Percent_4_Bucket_5: 99913
Non-critical_ROB_Stalls_Percent_4_Bucket_5: 21623
Critical_ROB_Stalls_Percent_4_Bucket_6: 171461
Non-critical_ROB_Stalls_Percent_4_Bucket_6: 32482
Critical_ROB_Stalls_Percent_5_Bucket_0: 423600
Non-critical_ROB_Stalls_Percent_5_Bucket_0: 252074
Critical_ROB_Stalls_Percent_5_Bucket_1: 553545
Non-critical_ROB_Stalls_Percent_5_Bucket_1: 140344
Critical_ROB_Stalls_Percent_5_Bucket_2: 245897
Non-critical_ROB_Stalls_Percent_5_Bucket_2: 65833
Critical_ROB_Stalls_Percent_5_Bucket_3: 124219
Non-critical_ROB_Stalls_Percent_5_Bucket_3: 38373
Critical_ROB_Stalls_Percent_5_Bucket_4: 102805
Non-critical_ROB_Stalls_Percent_5_Bucket_4: 30498
Critical_ROB_Stalls_Percent_5_Bucket_5: 102261
Non-critical_ROB_Stalls_Percent_5_Bucket_5: 19275
Critical_ROB_Stalls_Percent_5_Bucket_6: 175243
Non-critical_ROB_Stalls_Percent_5_Bucket_6: 28700
Critical_ROB_Stalls_Percent_6_Bucket_0: 473537
Non-critical_ROB_Stalls_Percent_6_Bucket_0: 202137
Critical_ROB_Stalls_Percent_6_Bucket_1: 580415
Non-critical_ROB_Stalls_Percent_6_Bucket_1: 113474
Critical_ROB_Stalls_Percent_6_Bucket_2: 260373
Non-critical_ROB_Stalls_Percent_6_Bucket_2: 51357
Critical_ROB_Stalls_Percent_6_Bucket_3: 132685
Non-critical_ROB_Stalls_Percent_6_Bucket_3: 29907
Critical_ROB_Stalls_Percent_6_Bucket_4: 108641
Non-critical_ROB_Stalls_Percent_6_Bucket_4: 24662
Critical_ROB_Stalls_Percent_6_Bucket_5: 106070
Non-critical_ROB_Stalls_Percent_6_Bucket_5: 15466
Critical_ROB_Stalls_Percent_6_Bucket_6: 180767
Non-critical_ROB_Stalls_Percent_6_Bucket_6: 23176
Critical_ROB_Stalls_Percent_7_Bucket_0: 516820
Non-critical_ROB_Stalls_Percent_7_Bucket_0: 158854
Critical_ROB_Stalls_Percent_7_Bucket_1: 608935
Non-critical_ROB_Stalls_Percent_7_Bucket_1: 84954
Critical_ROB_Stalls_Percent_7_Bucket_2: 273282
Non-critical_ROB_Stalls_Percent_7_Bucket_2: 38448
Critical_ROB_Stalls_Percent_7_Bucket_3: 140600
Non-critical_ROB_Stalls_Percent_7_Bucket_3: 21992
Critical_ROB_Stalls_Percent_7_Bucket_4: 118282
Non-critical_ROB_Stalls_Percent_7_Bucket_4: 15021
Critical_ROB_Stalls_Percent_7_Bucket_5: 111240
Non-critical_ROB_Stalls_Percent_7_Bucket_5: 10296
Critical_ROB_Stalls_Percent_7_Bucket_6: 188285
Non-critical_ROB_Stalls_Percent_7_Bucket_6: 15658
Critical_ROB_Stalls_Percent_8_Bucket_0: 564724
Non-critical_ROB_Stalls_Percent_8_Bucket_0: 110950
Critical_ROB_Stalls_Percent_8_Bucket_1: 636568
Non-critical_ROB_Stalls_Percent_8_Bucket_1: 57321
Critical_ROB_Stalls_Percent_8_Bucket_2: 286093
Non-critical_ROB_Stalls_Percent_8_Bucket_2: 25637
Critical_ROB_Stalls_Percent_8_Bucket_3: 148501
Non-critical_ROB_Stalls_Percent_8_Bucket_3: 14091
Critical_ROB_Stalls_Percent_8_Bucket_4: 124443
Non-critical_ROB_Stalls_Percent_8_Bucket_4: 8860
Critical_ROB_Stalls_Percent_8_Bucket_5: 116363
Non-critical_ROB_Stalls_Percent_8_Bucket_5: 5173
Critical_ROB_Stalls_Percent_8_Bucket_6: 195783
Non-critical_ROB_Stalls_Percent_8_Bucket_6: 8160
Average ROB occupancy Load Stall Begin: 103.116
Average ROB occupancy Load Stall End: 117.088
Min ROB occupancy Load Stall Begin: 1
Max ROB occupancy Load Stall Begin: 352
Min ROB occupancy Load Stall End: 1
Max ROB occupancy Load Stall End: 352
Average ROB occupancy Critical Load Stall Begin: -nan
Average ROB occupancy Critical Load Stall End: -nan
Min ROB occupancy Critical Load Stall Begin: 400
Max ROB occupancy Critical Load Stall Begin: 0
Min ROB occupancy Critical Load Stall End: 400
Max ROB occupancy Critical Load Stall End: 0
 ROB Load Stall Begin Bucket Count 0: 927218
 ROB Load Stall End Bucket Count 0: 675674
 ROB Critical Load Stall Begin Bucket Count 0: 0
 ROB Critical Load Stall End Bucket Count 0: 0
 ROB Load Stall Begin Bucket Count 1: 576138
 ROB Load Stall End Bucket Count 1: 693889
 ROB Critical Load Stall Begin Bucket Count 1: 0
 ROB Critical Load Stall End Bucket Count 1: 0
 ROB Load Stall Begin Bucket Count 2: 254535
 ROB Load Stall End Bucket Count 2: 311730
 ROB Critical Load Stall Begin Bucket Count 2: 0
 ROB Critical Load Stall End Bucket Count 2: 0
 ROB Load Stall Begin Bucket Count 3: 141932
 ROB Load Stall End Bucket Count 3: 162592
 ROB Critical Load Stall Begin Bucket Count 3: 0
 ROB Critical Load Stall End Bucket Count 3: 0
 ROB Load Stall Begin Bucket Count 4: 124686
 ROB Load Stall End Bucket Count 4: 133303
 ROB Critical Load Stall Begin Bucket Count 4: 0
 ROB Critical Load Stall End Bucket Count 4: 0
 ROB Load Stall Begin Bucket Count 5: 110892
 ROB Load Stall End Bucket Count 5: 121536
 ROB Critical Load Stall Begin Bucket Count 5: 0
 ROB Critical Load Stall End Bucket Count 5: 0
 ROB Load Stall Begin Bucket Count 6: 167266
 ROB Load Stall End Bucket Count 6: 203943
 ROB Critical Load Stall Begin Bucket Count 6: 0
 ROB Critical Load Stall End Bucket Count 6: 0
PIST Tag Read Accesses: 2840924
PIST Read Accesses: 1420462
PIST Tag Write Accesses: 2840924
PIST Write Accesses: 1420462
Criticality detector called times: 2114767
Max global_stall_cycles_count: 5452661
Threshold Modified: 0 times, factor: 0
Sturdy critical IP cache stats: 
 Unused entries: 0
CIC Tag Read Accesses: 0
CIC Read Accesses: 0
CIC Tag Write Accesses: 0
CIC Write Accesses: 0
Wobbly critical IP cache stats: 
 Unused entries: 106
CIC Tag Read Accesses: 135250314
CIC Read Accesses: 0
CIC Tag Write Accesses: 20024
CIC Write Accesses: 0
ITLB TOTAL     ACCESS:    8050718  HIT:    7920953  MISS:     129765  HIT %:    98.3882  MISS %:    1.61184   MPKI: 2.5953
ITLB LOAD TRANSLATION ACCESS:    7283455  HIT:    7264544  MISS:      18911  HIT %:    99.7404  MISS %:   0.259643   MPKI: 0.37822
ITLB TRANSLATION FROM L1D PREFETCHER ACCESS:     767263  HIT:     656409  MISS:     110854  HIT %:     85.552  MISS %:     14.448   MPKI: 2.21708
ITLB PREFETCH  REQUESTED:          0  ISSUED:          0  USEFUL:      94344  USELESS:      16512
ITLB USEFUL LOAD PREFETCHES:      94344 PREFETCH ISSUED TO LOWER LEVEL:          0  ACCURACY: inf
ITLB TIMELY PREFETCHES:      94344 LATE PREFETCHES: 297 DROPPED PREFETCHES: 418
ITLB PREFETCHES SAME FILL-ORIGIN LEVEL: 0 DIFFERENT FILL-ORIGIN LEVEL: 0
ITLB AVERAGE MISS LATENCY: 100202 cycles
ITLB RQ	ACCESS:   10881038	FORWARD:          0	MERGED:    2820652	TO_CACHE:    8060386

DTLB TOTAL     ACCESS:    9719985  HIT:    9408862  MISS:     311123  HIT %:    96.7991  MISS %:    3.20086   MPKI: 6.22246
DTLB LOAD TRANSLATION ACCESS:    9719985  HIT:    9408862  MISS:     311123  HIT %:    96.7991  MISS %:    3.20086   MPKI: 6.22246
DTLB PREFETCH  REQUESTED:          0  ISSUED:          0  USEFUL:          0  USELESS:          0
DTLB USEFUL LOAD PREFETCHES:          0 PREFETCH ISSUED TO LOWER LEVEL:          0  ACCURACY: -nan
DTLB TIMELY PREFETCHES:          0 LATE PREFETCHES: 0 DROPPED PREFETCHES: 0
DTLB PREFETCHES SAME FILL-ORIGIN LEVEL: 0 DIFFERENT FILL-ORIGIN LEVEL: 0
DTLB AVERAGE MISS LATENCY: 20.2336 cycles
DTLB RQ	ACCESS:   11988823	FORWARD:          0	MERGED:    2254592	TO_CACHE:    9734231

STLB TOTAL     ACCESS:     491157  HIT:     460225  MISS:      30932  HIT %:    93.7022  MISS %:    6.29778   MPKI: 0.61864
STLB LOAD TRANSLATION ACCESS:     329737  HIT:     304258  MISS:      25479  HIT %:    92.2729  MISS %:    7.72707   MPKI: 0.50958
STLB TRANSLATION FROM L1D PREFETCHER ACCESS:     161420  HIT:     155967  MISS:       5453  HIT %:    96.6219  MISS %:    3.37814   MPKI: 0.10906
STLB PREFETCH  REQUESTED:          0  ISSUED:          0  USEFUL:       3085  USELESS:       2420
STLB USEFUL LOAD PREFETCHES:       3085 PREFETCH ISSUED TO LOWER LEVEL:          0  ACCURACY: inf
STLB TIMELY PREFETCHES:       3085 LATE PREFETCHES: 0 DROPPED PREFETCHES: 418
STLB PREFETCHES SAME FILL-ORIGIN LEVEL: 0 DIFFERENT FILL-ORIGIN LEVEL: 0
STLB AVERAGE MISS LATENCY: 130.17 cycles
STLB RQ	ACCESS:     553235	FORWARD:          0	MERGED:      61658	TO_CACHE:     491577

STLB Hit, L1D data hit: 0
STLB Hit, L2C data hit: 0
STLB Hit, LLC data hit: 0
STLB Hit, LLC data miss: 0
STLB STLB hints to L2: 0
L1D TOTAL     ACCESS:   11715344  HIT:   11291893  MISS:     423451  HIT %:    96.3855  MISS %:     3.6145   MPKI: 8.46902
L1D LOAD      ACCESS:    6631715  HIT:    6365568  MISS:     266147  HIT %:    95.9868  MISS %:    4.01325   MPKI: 5.32294
L1D RFO       ACCESS:    4976309  HIT:    4879791  MISS:      96518  HIT %:    98.0605  MISS %:    1.93955   MPKI: 1.93036
L1D PREFETCH  ACCESS:     107320  HIT:      46534  MISS:      60786  HIT %:      43.36  MISS %:      56.64   MPKI: 1.21572
L1D PREFETCH  REQUESTED:     224341  ISSUED:     223859  USEFUL:      48299  USELESS:      12460
L1D USEFUL LOAD PREFETCHES:      48299 PREFETCH ISSUED TO LOWER LEVEL:      62715  ACCURACY: 77.0135
L1D TIMELY PREFETCHES:      48299 LATE PREFETCHES: 1752 DROPPED PREFETCHES: 0
L1D PREFETCHES SAME FILL-ORIGIN LEVEL: 62715 DIFFERENT FILL-ORIGIN LEVEL: 0
L1D AVERAGE MISS LATENCY: 238445 cycles
L1D RQ	ACCESS:   10454626	FORWARD:          0	MERGED:    3696008	TO_CACHE:    6680022
L1D WQ	ACCESS:    5417473	FORWARD:      78597	MERGED:     108672	TO_CACHE:    5308801
L1D PQ	ACCESS:     111930	FORWARD:          0	MERGED:          0	TO_CACHE:     111929

L1D UNIQUE REGIONS ACCESSED: 0
L1D REGIONS CONFLICTS: 0
L1D Cross Page Prefetch Requests: 0
L1D Same Page Prefetch Requests: 111930
L1D ROI Sum of L1D PQ occupancy: 1701749
L1D PREFETCHES PUSHED FROM L2C: 0
L1I TOTAL     ACCESS:   10839249  HIT:    9967472  MISS:     871777  HIT %:    91.9572  MISS %:    8.04278   MPKI: 17.4355
L1I LOAD      ACCESS:    9047852  HIT:    8983715  MISS:      64137  HIT %:    99.2911  MISS %:   0.708864   MPKI: 1.28274
L1I PREFETCH  ACCESS:    1791397  HIT:     983757  MISS:     807640  HIT %:    54.9156  MISS %:    45.0844   MPKI: 16.1528
L1I PREFETCH  REQUESTED:    1864058  ISSUED:    1861675  USEFUL:     605458  USELESS:     202239
L1I USEFUL LOAD PREFETCHES:     605458 PREFETCH ISSUED TO LOWER LEVEL:     817387  ACCURACY: 74.0724
L1I TIMELY PREFETCHES:     605458 LATE PREFETCHES: 9754 DROPPED PREFETCHES: 1051
L1I PREFETCHES SAME FILL-ORIGIN LEVEL: 817387 DIFFERENT FILL-ORIGIN LEVEL: 0
L1I AVERAGE MISS LATENCY: 535342 cycles
L1I RQ	ACCESS:   13265453	FORWARD:          0	MERGED:    4208450	TO_CACHE:    9057003
L1I PQ	ACCESS:    1861675	FORWARD:          0	MERGED:      37640	TO_CACHE:    1824035

BTB TOTAL     ACCESS:    3947211  HIT:    3651662  MISS:     295549  HIT %:    92.5125  MISS %:    7.48754   MPKI: 5.91098
BTB BRANCH_DIRECT_JUMP	ACCESS:     347939  HIT:     337009  MISS:      10930
BTB BRANCH_INDIRECT	ACCESS:     148210  HIT:      89092  MISS:      59118
BTB BRANCH_CONDITIONAL	ACCESS:    2238088  HIT:    2191941  MISS:      46147
BTB BRANCH_DIRECT_CALL	ACCESS:     570721  HIT:     551837  MISS:      18884
BTB BRANCH_INDIRECT_CALL	ACCESS:      25133  HIT:      23193  MISS:       1940
BTB BRANCH_RETURN	ACCESS:     617120  HIT:     458590  MISS:     158530
BTB BRANCH_OTHER ACCESS:          0  HIT:          0  MISS:          0

L2C TOTAL     ACCESS:    1733826  HIT:    1242835  MISS:     490991  HIT %:    71.6816  MISS %:    28.3184   MPKI: 9.81982
L2C LOAD      ACCESS:     318776  HIT:     119079  MISS:     199697  HIT %:    37.3551  MISS %:    62.6449   MPKI: 3.99394
L2C DATA LOAD MPKI: 3.5424
L2C INSTRUCTION LOAD MPKI: 0.45154
L2C RFO       ACCESS:      96515  HIT:      16493  MISS:      80022  HIT %:    17.0885  MISS %:    82.9115   MPKI: 1.60044
L2C PREFETCH  ACCESS:    1073394  HIT:     893814  MISS:     179580  HIT %:    83.2699  MISS %:    16.7301   MPKI: 3.5916
L2C DATA PREFETCH MPKI: 0.77418
L2C INSTRUCTION PREFETCH MPKI: 2.81742
L2C WRITEBACK ACCESS:     204618  HIT:     195096  MISS:       9522  HIT %:    95.3465  MISS %:    4.65355   MPKI: 0.19044
L2C LOAD TRANSLATION ACCESS:      33704  HIT:      14817  MISS:      18887  HIT %:    43.9621  MISS %:    56.0379   MPKI: 0.37774
L2C TRANSLATION FROM L1D PREFETCHER ACCESS:       6819  HIT:       3536  MISS:       3283  HIT %:    51.8551  MISS %:    48.1449   MPKI: 0.06566
L2C PREFETCH  REQUESTED:     413188  ISSUED:     413080  USEFUL:      11119  USELESS:     173455
L2C USEFUL LOAD PREFETCHES:      11119 PREFETCH ISSUED TO LOWER LEVEL:     179625  ACCURACY: 6.19012
L2C TIMELY PREFETCHES:      11119 LATE PREFETCHES: 46 DROPPED PREFETCHES: 0
L2C PREFETCHES SAME FILL-ORIGIN LEVEL: 22429 DIFFERENT FILL-ORIGIN LEVEL: 0
L2C AVERAGE MISS LATENCY: 117.422 cycles
L2C RQ	ACCESS:     455816	FORWARD:          0	MERGED:          0	TO_CACHE:     455813
L2C WQ	ACCESS:     204618	FORWARD:          8	MERGED:          0	TO_CACHE:     204618
L2C PQ	ACCESS:    1293007	FORWARD:          0	MERGED:     217302	TO_CACHE:    1075700

L2C Instructions Evicting Data 99422
L2C Translations Evicting Data 13885
L2C Data Evicting Data 184129
L2C Instructions Evicting Instructions 57171
L2C Translations Evicting Instructions 7245
L2C Data Evicting Instructions 97854
L2C Instructions Evicting Translations 6855
L2C Translations Evicting Translations 1040
L2C Data Evicting Translations 13868
L2C Dense regions hint from L2: 0
PSCL5 TOTAL     ACCESS:      31350  HIT:      31350  MISS:          0  HIT %:        100  MISS %:          0   MPKI: 0
PSCL5 LOAD TRANSLATION ACCESS:      25479  HIT:      25479  MISS:          0  HIT %:        100  MISS %:          0   MPKI: 0
PSCL5 TRANSLATION FROM L1D PREFETCHER ACCESS:       5871  HIT:       5871  MISS:          0  HIT %:        100  MISS %:          0   MPKI: 0
PSCL5 PREFETCH  REQUESTED:          0  ISSUED:          0  USEFUL:          0  USELESS:          0
PSCL5 USEFUL LOAD PREFETCHES:          0 PREFETCH ISSUED TO LOWER LEVEL:          0  ACCURACY: -nan
PSCL5 TIMELY PREFETCHES:          0 LATE PREFETCHES: 0 DROPPED PREFETCHES: 0
PSCL5 PREFETCHES SAME FILL-ORIGIN LEVEL: 0 DIFFERENT FILL-ORIGIN LEVEL: 0

PSCL4 TOTAL     ACCESS:      30846  HIT:      30756  MISS:         90  HIT %:    99.7082  MISS %:   0.291772   MPKI: 0.0018
PSCL4 LOAD TRANSLATION ACCESS:      25049  HIT:      24959  MISS:         90  HIT %:    99.6407  MISS %:   0.359296   MPKI: 0.0018
PSCL4 TRANSLATION FROM L1D PREFETCHER ACCESS:       5797  HIT:       5797  MISS:          0  HIT %:        100  MISS %:          0   MPKI: 0
PSCL4 PREFETCH  REQUESTED:          0  ISSUED:          0  USEFUL:          0  USELESS:          0
PSCL4 USEFUL LOAD PREFETCHES:          0 PREFETCH ISSUED TO LOWER LEVEL:          0  ACCURACY: -nan
PSCL4 TIMELY PREFETCHES:          0 LATE PREFETCHES: 0 DROPPED PREFETCHES: 0
PSCL4 PREFETCHES SAME FILL-ORIGIN LEVEL: 0 DIFFERENT FILL-ORIGIN LEVEL: 0

PSCL3 TOTAL     ACCESS:      31238  HIT:      31148  MISS:         90  HIT %:    99.7119  MISS %:   0.288111   MPKI: 0.0018
PSCL3 LOAD TRANSLATION ACCESS:      25441  HIT:      25351  MISS:         90  HIT %:    99.6462  MISS %:    0.35376   MPKI: 0.0018
PSCL3 TRANSLATION FROM L1D PREFETCHER ACCESS:       5797  HIT:       5797  MISS:          0  HIT %:        100  MISS %:          0   MPKI: 0
PSCL3 PREFETCH  REQUESTED:          0  ISSUED:          0  USEFUL:          0  USELESS:          0
PSCL3 USEFUL LOAD PREFETCHES:          0 PREFETCH ISSUED TO LOWER LEVEL:          0  ACCURACY: -nan
PSCL3 TIMELY PREFETCHES:          0 LATE PREFETCHES: 0 DROPPED PREFETCHES: 0
PSCL3 PREFETCHES SAME FILL-ORIGIN LEVEL: 0 DIFFERENT FILL-ORIGIN LEVEL: 0

PSCL2 TOTAL     ACCESS:      31165  HIT:      22376  MISS:       8789  HIT %:    71.7985  MISS %:    28.2015   MPKI: 0.17578
PSCL2 LOAD TRANSLATION ACCESS:      26174  HIT:      17385  MISS:       8789  HIT %:    66.4209  MISS %:    33.5791   MPKI: 0.17578
PSCL2 TRANSLATION FROM L1D PREFETCHER ACCESS:       4991  HIT:       4991  MISS:          0  HIT %:        100  MISS %:          0   MPKI: 0
PSCL2 PREFETCH  REQUESTED:          0  ISSUED:          0  USEFUL:          0  USELESS:          0
PSCL2 USEFUL LOAD PREFETCHES:          0 PREFETCH ISSUED TO LOWER LEVEL:          0  ACCURACY: -nan
PSCL2 TIMELY PREFETCHES:          0 LATE PREFETCHES: 0 DROPPED PREFETCHES: 0
PSCL2 PREFETCHES SAME FILL-ORIGIN LEVEL: 0 DIFFERENT FILL-ORIGIN LEVEL: 0

LLC TOTAL     ACCESS:     645316  HIT:     408690  MISS:     236626  HIT %:    63.3318  MISS %:    36.6682   MPKI: 4.73252
LLC LOAD      ACCESS:     199651  HIT:      83755  MISS:     115896  HIT %:    41.9507  MISS %:    58.0493   MPKI: 2.31792
LLC RFO       ACCESS:      80021  HIT:       6249  MISS:      73772  HIT %:     7.8092  MISS %:    92.1908   MPKI: 1.47544
LLC PREFETCH  ACCESS:     179625  HIT:     148240  MISS:      31385  HIT %:    82.5275  MISS %:    17.4725   MPKI: 0.6277
LLC WRITEBACK ACCESS:     163849  HIT:     156294  MISS:       7555  HIT %:     95.389  MISS %:    4.61095   MPKI: 0.1511
LLC LOAD TRANSLATION ACCESS:      18887  HIT:      11176  MISS:       7711  HIT %:     59.173  MISS %:     40.827   MPKI: 0.15422
LLC TRANSLATION FROM L1D PREFETCHER ACCESS:       3283  HIT:       2976  MISS:        307  HIT %:    90.6488  MISS %:     9.3512   MPKI: 0.00614
LLC PREFETCH  REQUESTED:          0  ISSUED:          0  USEFUL:       1196  USELESS:      28996
LLC USEFUL LOAD PREFETCHES:       1196 PREFETCH ISSUED TO LOWER LEVEL:      31385  ACCURACY: 3.81074
LLC TIMELY PREFETCHES:       1196 LATE PREFETCHES: 0 DROPPED PREFETCHES: 0
LLC PREFETCHES SAME FILL-ORIGIN LEVEL: 0 DIFFERENT FILL-ORIGIN LEVEL: 0
LLC AVERAGE MISS LATENCY: 181.622 cycles
LLC RQ	ACCESS:     301842	FORWARD:          0	MERGED:          0	TO_CACHE:     301841
LLC WQ	ACCESS:     163849	FORWARD:          1	MERGED:          0	TO_CACHE:     163849
LLC PQ	ACCESS:     179625	FORWARD:          0	MERGED:          0	TO_CACHE:     179625

LLC Dense regions hint to LLC: 0

RAW hits: 1277542
Loads Generated: 11732168
Loads sent to L1D: 10454626
Stores Generated: 5417460
Stores sent to L1D: 5417473
Major fault: 0 Minor fault: 17223
Allocated PAGES: 17223
I-Shadow cache 408 bytes
Touched + WorthPF tables 6144 bytes 
MMA filter 174 bytes 
FNL filter 272 bytes 
TOTAL PREFETCHER STORAGE SIZE: 25174 bytes
CPU 0 L1I next line prefetcher final stats

stream: 
stream:times selected: 112161
stream:pref_filled: 59368
stream:pref_useful: 47472
stream:pref_late: 1060
stream:misses: 494
stream:misses_by_poll: 0

CS: 
CS:times selected: 75404
CS:pref_filled: 212
CS:pref_useful: 203
CS:pref_late: 6
CS:misses: 2285
CS:misses_by_poll: 3

CPLX: 
CPLX:times selected: 36583
CPLX:pref_filled: 1143
CPLX:pref_useful: 579
CPLX:pref_late: 56
CPLX:misses: 3240
CPLX:misses_by_poll: 3

NL_L1: 
NL:times selected: 67
NL:pref_filled: 7
NL:pref_useful: 6
NL:pref_late: 5
NL:misses: 10
NL:misses_by_poll: 0

total selections: 224215
total_filled: 60786
total_useful: 48299
total_late: 1752
total_polluted: 6
total_misses_after_warmup: 8039
conflicts: 255
Degree Incremented Times: 1206
Degree Decremented Times: 326

L1 IP Table Write Accesses: 233729
L1 IP Table Read Accesses: 233474
L1 RST Write Accesses: 112163
L1 RST Read Accesses: 224317
L1 CSPT Write Accesses: 112163
L1 CSPT Read Accesses: 152282
L1 RR Filter Tag Write Accesses: 112412
L1 RR Filter Tag Read Accesses: 21212111
L1 IP Table Tag Write Accesses: 238477
L1 IP Table Tag Read Accesses: 238477
L1 RST Tag Write Accesses: 56
L1 RST Tag Read Accesses: 984278
L1 RR Filter Write Accesses: 0
L1 RR Filter Read Accesses: 877507
test: 21758
L2 IP Table Read Accesses: 295832
L2 IP Table Write Accesses: 505500
L2 IP Table Tag Read Accesses: 255576
L2 IP Table Tag Write Accesses: 255576

DRAM Statistics
 CHANNEL 0
 RQ ROW_BUFFER_HIT:      59920  ROW_BUFFER_MISS:     169148
 DBUS_CONGESTED:         45
 WQ ROW_BUFFER_HIT:      26274  ROW_BUFFER_MISS:     128736  FULL:          0

 AVG_CONGESTED_CYCLE: 5
 All warmup complete: 2
Channel 0 Bank busy for read cycles: 0
Channel 0 Bank busy for write cycles: 0
Channel 0
Rank 0
0banks busy for read cycles: 37307415
0banks busy for write cycles: 59475
1banks busy for read cycles: 13584856
1banks busy for write cycles: 8192713
2banks busy for read cycles: 2940675
2banks busy for write cycles: 2689080
3banks busy for read cycles: 409000
3banks busy for write cycles: 713140
4banks busy for read cycles: 194540
4banks busy for write cycles: 323156
5banks busy for read cycles: 144285
5banks busy for write cycles: 215085
6banks busy for read cycles: 142448
6banks busy for write cycles: 174699
7banks busy for read cycles: 180193
7banks busy for write cycles: 177390
8banks busy for read cycles: 520757
8banks busy for write cycles: 879061

CPU 0 Branch Prediction Accuracy: 99.5889% MPKI: 0.70108 Average ROB Occupancy at Mispredict: 98.8643
Branch types
NOT_BRANCH: 41473363 82.9467%
BRANCH_DIRECT_JUMP: 347939 0.695878%
BRANCH_INDIRECT: 148210 0.29642%
BRANCH_CONDITIONAL: 6817243 13.6345%
BRANCH_DIRECT_CALL: 570721 1.14144%
BRANCH_INDIRECT_CALL: 25133 0.050266%
BRANCH_RETURN: 617120 1.23424%
BRANCH_OTHER: 0 0%

DRAM PAGES: 1048576
Allocated PAGES: 17223
