Initialize SIGNATURE TABLE
ST_SET: 1
ST_WAY: 16
ST_TAG_BIT: 16
ST_TAG_MASK: ffff

Initialize PATTERN TABLE
PT_SET: 16
PT_WAY: 4
SIG_DELTA_BIT: 7
C_SIG_BIT: 4
C_DELTA_BIT: 4

Initialize PREFETCH FILTER
FILTER_SET: 1024

Initialize PERCEPTRON
PERC_ENTRIES: 4096
PERC_FEATURES: 9

*** ChampSim Multicore Out-of-Order Simulator ***

Warmup Instructions: 50000000
Simulation Instructions: 50000000
Number of CPUs: 1
LLC sets: 2048
LLC ways: 16
Off-chip DRAM Size: 4096 MB Channels: 1 Width: 64-bit Data Rate: 6400 MT/s
CPU 0 runs ../IPC-traces//server_025.champsimtrace.xz
.xz
BTB has LRU replacement policy
ITLB has LRU replacement policy
DTLB has LRU replacement policy
STLB has LRU replacement policy
CPU 0 L1I next line prefetcher
L1I has LRU replacement policy
L1D has LRU replacement policy
Initialize SRRIP state for L2C
Initialize DRRIP state for LLC
Heartbeat CPU 0 instructions: 10000000 cycles: 2887640 heartbeat IPC: 3.46304 cumulative IPC: 3.46304 (Simulation time: 0 hr 3 min 27 sec) 
Heartbeat CPU 0 instructions: 20000003 cycles: 5773759 heartbeat IPC: 3.46486 cumulative IPC: 3.46395 (Simulation time: 0 hr 6 min 9 sec) 
Heartbeat CPU 0 instructions: 30000001 cycles: 8655829 heartbeat IPC: 3.46973 cumulative IPC: 3.46587 (Simulation time: 0 hr 8 min 45 sec) 
Heartbeat CPU 0 instructions: 40000001 cycles: 11541241 heartbeat IPC: 3.46571 cumulative IPC: 3.46583 (Simulation time: 0 hr 11 min 14 sec) 
Heartbeat CPU 0 instructions: 50000001 cycles: 14425224 heartbeat IPC: 3.46743 cumulative IPC: 3.46615 (Simulation time: 0 hr 13 min 23 sec) 

Warmup complete CPU 0 instructions: 50000001 cycles: 14425224 (Simulation time: 0 hr 13 min 23 sec) 

Heartbeat CPU 0 instructions: 60000000 cycles: 30783782 heartbeat IPC: 0.611301 cumulative IPC: 0.611301 (Simulation time: 0 hr 15 min 52 sec) 
Heartbeat CPU 0 instructions: 70000000 cycles: 47171805 heartbeat IPC: 0.610202 cumulative IPC: 0.610751 (Simulation time: 0 hr 18 min 26 sec) 
Heartbeat CPU 0 instructions: 80000002 cycles: 63460918 heartbeat IPC: 0.613907 cumulative IPC: 0.611799 (Simulation time: 0 hr 21 min 0 sec) 
Heartbeat CPU 0 instructions: 90000002 cycles: 78411435 heartbeat IPC: 0.668873 cumulative IPC: 0.625135 (Simulation time: 0 hr 23 min 34 sec) 
Heartbeat CPU 0 instructions: 100000003 cycles: 92211211 heartbeat IPC: 0.724649 cumulative IPC: 0.642789 (Simulation time: 0 hr 26 min 37 sec) 
Finished CPU 0 instructions: 50000002 cycles: 77785987 cumulative IPC: 0.642789 (Simulation time: 0 hr 26 min 37 sec) 

ChampSim completed all CPUs

Region of Interest Statistics

CPU 0 cumulative IPC: 0.642789 instructions: 50000002 cycles: 77785987

CPU 0 Average Load ROB stall cycles: 1.93886e+07
CPU 0 Fraction of times ROB stalled by Loads: 36.2001
CPU 0 Percentage of Load stall cycles in Total stall cycles: 2.82014e+08
Issued all: 27625327
Issued LT all: 21854766
rob_not_full_when_issued_lt_all: 21598161
Issued LT one: 16804322
rob_not_full_when_issued_lt_one: 16582099
FVP critical_dynamic_instances_0: 1944324
FVP unique_critical_ips_0: 5268
 Total stall cycles: 64617682
 Total load stall cycles: 182231082434835
Unique Load IPs: 13966
CPU 0 NUM of IPS identified critical: 0
CPU 0 Num of Load IPs stalling ROB: 0
Threshold modification factor: 0
Trouble in retire width: -nan
MaC = Marked as critical.
lt_50_percent_before_Mac: 0
gt_90_percent_before_Mac: 0
gt_75_percent_before_Mac: 0
gt_50_percent_before_Mac: 0
stall_proportion_bin_same_before_after: 0
stall_proportion_bin_lower_before_after: 0
stall_proportion_bin_upper_before_after: 0
average_stall_proportion_before: -nan
average_stall_proportion_after: -nan
Critical IP stalls, total frequency: 0
Non-critical IP stalls, total frequency: 0
Total Freq all stalling IPs: 0
Critical_IP_Detector_Accuracy_70: 0.000189825
Critical_IP_Detector_Accuracy_80: 0.000189825
Critical_IP_Detector_Accuracy_90: 0.000189825
Critical_IP_Detector_Coverage_70: 1
Critical_IP_Detector_Coverage_80: 1
Critical_IP_Detector_Coverage_90: 1
stat_90_percent_critical_ip_stalls_freq: 57830
stat_90_percent_non_critical_ip_stalls_freq: 18446744073709493786
AVERAGE_ROB_Occupancy_90_Percent_Critical_IP_Stalls: 99.8799
AVERAGE_ROB_Occupancy_90_Percent_Non_Critical_IP_Stalls: 8.57615e-12
Critical_IP_ROB_Stalls_Bucket_0: 0
Non-critical_IP_ROB_Stalls_Bucket_0: 2272138
Critical_IP_ROB_Stalls_Bucket_1: 0
Non-critical_IP_ROB_Stalls_Bucket_1: 729246
Critical_IP_ROB_Stalls_Bucket_2: 0
Non-critical_IP_ROB_Stalls_Bucket_2: 277506
Critical_IP_ROB_Stalls_Bucket_3: 0
Non-critical_IP_ROB_Stalls_Bucket_3: 79414
Critical_IP_ROB_Stalls_Bucket_4: 0
Non-critical_IP_ROB_Stalls_Bucket_4: 19551
Critical_IP_ROB_Stalls_Bucket_5: 0
Non-critical_IP_ROB_Stalls_Bucket_5: 9135
Critical_IP_ROB_Stalls_Bucket_6: 0
Non-critical_IP_ROB_Stalls_Bucket_6: 15411
0 => IPs accounting for >50 percent of stalls, 1 => 55, 2 => 60, 3 => 65 and so on till 90.
percent50: inf num IPs:  1
percent55: inf num IPs: 1
percent60: inf num IPs: 1
percent65: inf num IPs: 1
percent70: inf num IPs: 1
percent75: inf num IPs: 1
percent80: inf num IPs: 1
percent85: inf num IPs: 1
percent90: inf num IPs: 1
Critical_ROB_Stalls_Percent_0_Bucket_0: 1732
Non-critical_ROB_Stalls_Percent_0_Bucket_0: 2270406
Critical_ROB_Stalls_Percent_0_Bucket_1: 38600
Non-critical_ROB_Stalls_Percent_0_Bucket_1: 690646
Critical_ROB_Stalls_Percent_0_Bucket_2: 15613
Non-critical_ROB_Stalls_Percent_0_Bucket_2: 261893
Critical_ROB_Stalls_Percent_0_Bucket_3: 1884
Non-critical_ROB_Stalls_Percent_0_Bucket_3: 77530
Critical_ROB_Stalls_Percent_0_Bucket_4: 1
Non-critical_ROB_Stalls_Percent_0_Bucket_4: 19550
Critical_ROB_Stalls_Percent_0_Bucket_5: 0
Non-critical_ROB_Stalls_Percent_0_Bucket_5: 9135
Critical_ROB_Stalls_Percent_0_Bucket_6: 0
Non-critical_ROB_Stalls_Percent_0_Bucket_6: 15411
Critical_ROB_Stalls_Percent_1_Bucket_0: 1732
Non-critical_ROB_Stalls_Percent_1_Bucket_0: 2270406
Critical_ROB_Stalls_Percent_1_Bucket_1: 38600
Non-critical_ROB_Stalls_Percent_1_Bucket_1: 690646
Critical_ROB_Stalls_Percent_1_Bucket_2: 15613
Non-critical_ROB_Stalls_Percent_1_Bucket_2: 261893
Critical_ROB_Stalls_Percent_1_Bucket_3: 1884
Non-critical_ROB_Stalls_Percent_1_Bucket_3: 77530
Critical_ROB_Stalls_Percent_1_Bucket_4: 1
Non-critical_ROB_Stalls_Percent_1_Bucket_4: 19550
Critical_ROB_Stalls_Percent_1_Bucket_5: 0
Non-critical_ROB_Stalls_Percent_1_Bucket_5: 9135
Critical_ROB_Stalls_Percent_1_Bucket_6: 0
Non-critical_ROB_Stalls_Percent_1_Bucket_6: 15411
Critical_ROB_Stalls_Percent_2_Bucket_0: 1732
Non-critical_ROB_Stalls_Percent_2_Bucket_0: 2270406
Critical_ROB_Stalls_Percent_2_Bucket_1: 38600
Non-critical_ROB_Stalls_Percent_2_Bucket_1: 690646
Critical_ROB_Stalls_Percent_2_Bucket_2: 15613
Non-critical_ROB_Stalls_Percent_2_Bucket_2: 261893
Critical_ROB_Stalls_Percent_2_Bucket_3: 1884
Non-critical_ROB_Stalls_Percent_2_Bucket_3: 77530
Critical_ROB_Stalls_Percent_2_Bucket_4: 1
Non-critical_ROB_Stalls_Percent_2_Bucket_4: 19550
Critical_ROB_Stalls_Percent_2_Bucket_5: 0
Non-critical_ROB_Stalls_Percent_2_Bucket_5: 9135
Critical_ROB_Stalls_Percent_2_Bucket_6: 0
Non-critical_ROB_Stalls_Percent_2_Bucket_6: 15411
Critical_ROB_Stalls_Percent_3_Bucket_0: 1732
Non-critical_ROB_Stalls_Percent_3_Bucket_0: 2270406
Critical_ROB_Stalls_Percent_3_Bucket_1: 38600
Non-critical_ROB_Stalls_Percent_3_Bucket_1: 690646
Critical_ROB_Stalls_Percent_3_Bucket_2: 15613
Non-critical_ROB_Stalls_Percent_3_Bucket_2: 261893
Critical_ROB_Stalls_Percent_3_Bucket_3: 1884
Non-critical_ROB_Stalls_Percent_3_Bucket_3: 77530
Critical_ROB_Stalls_Percent_3_Bucket_4: 1
Non-critical_ROB_Stalls_Percent_3_Bucket_4: 19550
Critical_ROB_Stalls_Percent_3_Bucket_5: 0
Non-critical_ROB_Stalls_Percent_3_Bucket_5: 9135
Critical_ROB_Stalls_Percent_3_Bucket_6: 0
Non-critical_ROB_Stalls_Percent_3_Bucket_6: 15411
Critical_ROB_Stalls_Percent_4_Bucket_0: 1732
Non-critical_ROB_Stalls_Percent_4_Bucket_0: 2270406
Critical_ROB_Stalls_Percent_4_Bucket_1: 38600
Non-critical_ROB_Stalls_Percent_4_Bucket_1: 690646
Critical_ROB_Stalls_Percent_4_Bucket_2: 15613
Non-critical_ROB_Stalls_Percent_4_Bucket_2: 261893
Critical_ROB_Stalls_Percent_4_Bucket_3: 1884
Non-critical_ROB_Stalls_Percent_4_Bucket_3: 77530
Critical_ROB_Stalls_Percent_4_Bucket_4: 1
Non-critical_ROB_Stalls_Percent_4_Bucket_4: 19550
Critical_ROB_Stalls_Percent_4_Bucket_5: 0
Non-critical_ROB_Stalls_Percent_4_Bucket_5: 9135
Critical_ROB_Stalls_Percent_4_Bucket_6: 0
Non-critical_ROB_Stalls_Percent_4_Bucket_6: 15411
Critical_ROB_Stalls_Percent_5_Bucket_0: 1732
Non-critical_ROB_Stalls_Percent_5_Bucket_0: 2270406
Critical_ROB_Stalls_Percent_5_Bucket_1: 38600
Non-critical_ROB_Stalls_Percent_5_Bucket_1: 690646
Critical_ROB_Stalls_Percent_5_Bucket_2: 15613
Non-critical_ROB_Stalls_Percent_5_Bucket_2: 261893
Critical_ROB_Stalls_Percent_5_Bucket_3: 1884
Non-critical_ROB_Stalls_Percent_5_Bucket_3: 77530
Critical_ROB_Stalls_Percent_5_Bucket_4: 1
Non-critical_ROB_Stalls_Percent_5_Bucket_4: 19550
Critical_ROB_Stalls_Percent_5_Bucket_5: 0
Non-critical_ROB_Stalls_Percent_5_Bucket_5: 9135
Critical_ROB_Stalls_Percent_5_Bucket_6: 0
Non-critical_ROB_Stalls_Percent_5_Bucket_6: 15411
Critical_ROB_Stalls_Percent_6_Bucket_0: 1732
Non-critical_ROB_Stalls_Percent_6_Bucket_0: 2270406
Critical_ROB_Stalls_Percent_6_Bucket_1: 38600
Non-critical_ROB_Stalls_Percent_6_Bucket_1: 690646
Critical_ROB_Stalls_Percent_6_Bucket_2: 15613
Non-critical_ROB_Stalls_Percent_6_Bucket_2: 261893
Critical_ROB_Stalls_Percent_6_Bucket_3: 1884
Non-critical_ROB_Stalls_Percent_6_Bucket_3: 77530
Critical_ROB_Stalls_Percent_6_Bucket_4: 1
Non-critical_ROB_Stalls_Percent_6_Bucket_4: 19550
Critical_ROB_Stalls_Percent_6_Bucket_5: 0
Non-critical_ROB_Stalls_Percent_6_Bucket_5: 9135
Critical_ROB_Stalls_Percent_6_Bucket_6: 0
Non-critical_ROB_Stalls_Percent_6_Bucket_6: 15411
Critical_ROB_Stalls_Percent_7_Bucket_0: 1732
Non-critical_ROB_Stalls_Percent_7_Bucket_0: 2270406
Critical_ROB_Stalls_Percent_7_Bucket_1: 38600
Non-critical_ROB_Stalls_Percent_7_Bucket_1: 690646
Critical_ROB_Stalls_Percent_7_Bucket_2: 15613
Non-critical_ROB_Stalls_Percent_7_Bucket_2: 261893
Critical_ROB_Stalls_Percent_7_Bucket_3: 1884
Non-critical_ROB_Stalls_Percent_7_Bucket_3: 77530
Critical_ROB_Stalls_Percent_7_Bucket_4: 1
Non-critical_ROB_Stalls_Percent_7_Bucket_4: 19550
Critical_ROB_Stalls_Percent_7_Bucket_5: 0
Non-critical_ROB_Stalls_Percent_7_Bucket_5: 9135
Critical_ROB_Stalls_Percent_7_Bucket_6: 0
Non-critical_ROB_Stalls_Percent_7_Bucket_6: 15411
Critical_ROB_Stalls_Percent_8_Bucket_0: 1732
Non-critical_ROB_Stalls_Percent_8_Bucket_0: 2270406
Critical_ROB_Stalls_Percent_8_Bucket_1: 38600
Non-critical_ROB_Stalls_Percent_8_Bucket_1: 690646
Critical_ROB_Stalls_Percent_8_Bucket_2: 15613
Non-critical_ROB_Stalls_Percent_8_Bucket_2: 261893
Critical_ROB_Stalls_Percent_8_Bucket_3: 1884
Non-critical_ROB_Stalls_Percent_8_Bucket_3: 77530
Critical_ROB_Stalls_Percent_8_Bucket_4: 1
Non-critical_ROB_Stalls_Percent_8_Bucket_4: 19550
Critical_ROB_Stalls_Percent_8_Bucket_5: 0
Non-critical_ROB_Stalls_Percent_8_Bucket_5: 9135
Critical_ROB_Stalls_Percent_8_Bucket_6: 0
Non-critical_ROB_Stalls_Percent_8_Bucket_6: 15411
Average ROB occupancy Load Stall Begin: 39.9163
Average ROB occupancy Load Stall End: 48.1948
Min ROB occupancy Load Stall Begin: 1
Max ROB occupancy Load Stall Begin: 352
Min ROB occupancy Load Stall End: 1
Max ROB occupancy Load Stall End: 352
Average ROB occupancy Critical Load Stall Begin: -nan
Average ROB occupancy Critical Load Stall End: -nan
Min ROB occupancy Critical Load Stall Begin: 400
Max ROB occupancy Critical Load Stall Begin: 0
Min ROB occupancy Critical Load Stall End: 400
Max ROB occupancy Critical Load Stall End: 0
 ROB Load Stall Begin Bucket Count 0: 2508213
 ROB Load Stall End Bucket Count 0: 2272138
 ROB Critical Load Stall Begin Bucket Count 0: 0
 ROB Critical Load Stall End Bucket Count 0: 0
 ROB Load Stall Begin Bucket Count 1: 592459
 ROB Load Stall End Bucket Count 1: 729246
 ROB Critical Load Stall Begin Bucket Count 1: 0
 ROB Critical Load Stall End Bucket Count 1: 0
 ROB Load Stall Begin Bucket Count 2: 207105
 ROB Load Stall End Bucket Count 2: 277506
 ROB Critical Load Stall Begin Bucket Count 2: 0
 ROB Critical Load Stall End Bucket Count 2: 0
 ROB Load Stall Begin Bucket Count 3: 56317
 ROB Load Stall End Bucket Count 3: 79414
 ROB Critical Load Stall Begin Bucket Count 3: 0
 ROB Critical Load Stall End Bucket Count 3: 0
 ROB Load Stall Begin Bucket Count 4: 15947
 ROB Load Stall End Bucket Count 4: 19551
 ROB Critical Load Stall Begin Bucket Count 4: 0
 ROB Critical Load Stall End Bucket Count 4: 0
 ROB Load Stall Begin Bucket Count 5: 8199
 ROB Load Stall End Bucket Count 5: 9135
 ROB Critical Load Stall Begin Bucket Count 5: 0
 ROB Critical Load Stall End Bucket Count 5: 0
 ROB Load Stall Begin Bucket Count 6: 14161
 ROB Load Stall End Bucket Count 6: 15411
 ROB Critical Load Stall Begin Bucket Count 6: 0
 ROB Critical Load Stall End Bucket Count 6: 0
PIST Tag Read Accesses: 0
PIST Read Accesses: 0
PIST Tag Write Accesses: 0
PIST Write Accesses: 0
Criticality detector called times: 0
Max global_stall_cycles_count: 0
Threshold Modified: 0 times, factor: 0
ITLB TOTAL     ACCESS:    9959364  HIT:    9367487  MISS:     591877  HIT %:    94.0571  MISS %:    5.94292   MPKI: 11.8375
ITLB LOAD TRANSLATION ACCESS:    8167996  HIT:    8092179  MISS:      75817  HIT %:    99.0718  MISS %:    0.92822   MPKI: 1.51634
ITLB TRANSLATION FROM L1D PREFETCHER ACCESS:    1791368  HIT:    1275308  MISS:     516060  HIT %:    71.1918  MISS %:    28.8082   MPKI: 10.3212
ITLB PREFETCH  REQUESTED:          0  ISSUED:          0  USEFUL:     412881  USELESS:     103183
ITLB USEFUL LOAD PREFETCHES:     412881 PREFETCH ISSUED TO LOWER LEVEL:          0  ACCURACY: inf
ITLB TIMELY PREFETCHES:     412881 LATE PREFETCHES: 236 DROPPED PREFETCHES: 3926
ITLB PREFETCHES SAME FILL-ORIGIN LEVEL: 0 DIFFERENT FILL-ORIGIN LEVEL: 0
ITLB AVERAGE MISS LATENCY: 20556.4 cycles
ITLB RQ	ACCESS:   14599625	FORWARD:          0	MERGED:    4598332	TO_CACHE:   10001293

DTLB TOTAL     ACCESS:   11438844  HIT:   10986582  MISS:     452262  HIT %:    96.0463  MISS %:    3.95374   MPKI: 9.04524
DTLB LOAD TRANSLATION ACCESS:   11438844  HIT:   10986582  MISS:     452262  HIT %:    96.0463  MISS %:    3.95374   MPKI: 9.04524
DTLB PREFETCH  REQUESTED:          0  ISSUED:          0  USEFUL:          0  USELESS:          0
DTLB USEFUL LOAD PREFETCHES:          0 PREFETCH ISSUED TO LOWER LEVEL:          0  ACCURACY: -nan
DTLB TIMELY PREFETCHES:          0 LATE PREFETCHES: 0 DROPPED PREFETCHES: 0
DTLB PREFETCHES SAME FILL-ORIGIN LEVEL: 0 DIFFERENT FILL-ORIGIN LEVEL: 0
DTLB AVERAGE MISS LATENCY: 9.31142 cycles
DTLB RQ	ACCESS:   14981367	FORWARD:          0	MERGED:    3519217	TO_CACHE:   11462150

STLB TOTAL     ACCESS:    1044139  HIT:    1041931  MISS:       2208  HIT %:    99.7885  MISS %:   0.211466   MPKI: 0.04416
STLB LOAD TRANSLATION ACCESS:     527843  HIT:     525956  MISS:       1887  HIT %:    99.6425  MISS %:   0.357493   MPKI: 0.03774
STLB TRANSLATION FROM L1D PREFETCHER ACCESS:     516296  HIT:     515975  MISS:        321  HIT %:    99.9378  MISS %:  0.0621736   MPKI: 0.00642
STLB PREFETCH  REQUESTED:          0  ISSUED:          0  USEFUL:        278  USELESS:         43
STLB USEFUL LOAD PREFETCHES:        278 PREFETCH ISSUED TO LOWER LEVEL:          0  ACCURACY: inf
STLB TIMELY PREFETCHES:        278 LATE PREFETCHES: 0 DROPPED PREFETCHES: 3926
STLB PREFETCHES SAME FILL-ORIGIN LEVEL: 0 DIFFERENT FILL-ORIGIN LEVEL: 0
STLB AVERAGE MISS LATENCY: 72.4389 cycles
STLB RQ	ACCESS:    1048065	FORWARD:          0	MERGED:          0	TO_CACHE:    1048065

STLB Hit, L1D data hit: 0
STLB Hit, L2C data hit: 0
STLB Hit, LLC data hit: 0
STLB Hit, LLC data miss: 0
STLB STLB hints to L2: 0
L1D TOTAL     ACCESS:   14546042  HIT:   13645203  MISS:     900839  HIT %:     93.807  MISS %:    6.19302   MPKI: 18.0168
L1D LOAD      ACCESS:    8069966  HIT:    7420718  MISS:     649248  HIT %:    91.9548  MISS %:    8.04524   MPKI: 12.985
L1D RFO       ACCESS:    6476076  HIT:    6224485  MISS:     251591  HIT %:    96.1151  MISS %:    3.88493   MPKI: 5.03182
L1D PREFETCH  REQUESTED:          0  ISSUED:          0  USEFUL:          0  USELESS:          0
L1D USEFUL LOAD PREFETCHES:          0 PREFETCH ISSUED TO LOWER LEVEL:          0  ACCURACY: -nan
L1D TIMELY PREFETCHES:          0 LATE PREFETCHES: 0 DROPPED PREFETCHES: 0
L1D PREFETCHES SAME FILL-ORIGIN LEVEL: 0 DIFFERENT FILL-ORIGIN LEVEL: 0
L1D AVERAGE MISS LATENCY: 23.2671 cycles
L1D RQ	ACCESS:   11580997	FORWARD:          0	MERGED:    3331493	TO_CACHE:    8096138
L1D WQ	ACCESS:    6957599	FORWARD:     153366	MERGED:      72370	TO_CACHE:    6885229

L1D UNIQUE REGIONS ACCESSED: 0
L1D REGIONS CONFLICTS: 0
L1D Cross Page Prefetch Requests: 0
L1D Same Page Prefetch Requests: 0
L1D ROI Sum of L1D PQ occupancy: 0
L1D PREFETCHES PUSHED FROM L2C: 0
L1I TOTAL     ACCESS:   14471505  HIT:   10832987  MISS:    3638518  HIT %:    74.8574  MISS %:    25.1426   MPKI: 72.7704
L1I LOAD      ACCESS:    9572066  HIT:    9343879  MISS:     228187  HIT %:    97.6161  MISS %:    2.38388   MPKI: 4.56374
L1I PREFETCH  ACCESS:    4899439  HIT:    1489108  MISS:    3410331  HIT %:    30.3934  MISS %:    69.6066   MPKI: 68.2066
L1I PREFETCH  REQUESTED:    5129468  ISSUED:    5120763  USEFUL:    2315569  USELESS:    1094800
L1I USEFUL LOAD PREFETCHES:    2315569 PREFETCH ISSUED TO LOWER LEVEL:    3433650  ACCURACY: 67.4375
L1I TIMELY PREFETCHES:    2315569 LATE PREFETCHES: 23317 DROPPED PREFETCHES: 9988
L1I PREFETCHES SAME FILL-ORIGIN LEVEL: 3433650 DIFFERENT FILL-ORIGIN LEVEL: 0
L1I AVERAGE MISS LATENCY: 322566 cycles
L1I RQ	ACCESS:   13673225	FORWARD:          0	MERGED:    4080179	TO_CACHE:    9593046
L1I PQ	ACCESS:    5120763	FORWARD:          0	MERGED:     114184	TO_CACHE:    5006579

BTB TOTAL     ACCESS:    6187548  HIT:    4393594  MISS:    1793954  HIT %:     71.007  MISS %:     28.993   MPKI: 35.8791
BTB BRANCH_DIRECT_JUMP	ACCESS:     531697  HIT:     378294  MISS:     153403
BTB BRANCH_INDIRECT	ACCESS:     199023  HIT:     166589  MISS:      32434
BTB BRANCH_CONDITIONAL	ACCESS:    3068015  HIT:    2579394  MISS:     488621
BTB BRANCH_DIRECT_CALL	ACCESS:    1010905  HIT:     656135  MISS:     354770
BTB BRANCH_INDIRECT_CALL	ACCESS:     183501  HIT:     115238  MISS:      68263
BTB BRANCH_RETURN	ACCESS:    1194407  HIT:     497944  MISS:     696463
BTB BRANCH_OTHER ACCESS:          0  HIT:          0  MISS:          0

L2C TOTAL     ACCESS:    5045317  HIT:    4573882  MISS:     471435  HIT %:     90.656  MISS %:    9.34401   MPKI: 9.4287
L2C LOAD      ACCESS:     854103  HIT:     726625  MISS:     127478  HIT %:    85.0746  MISS %:    14.9254   MPKI: 2.54956
L2C DATA LOAD MPKI: 1.96628
L2C INSTRUCTION LOAD MPKI: 0.58328
L2C RFO       ACCESS:     251590  HIT:     197441  MISS:      54149  HIT %:    78.4773  MISS %:    21.5227   MPKI: 1.08298
L2C PREFETCH  ACCESS:    3483186  HIT:    3218128  MISS:     265058  HIT %:    92.3904  MISS %:    7.60964   MPKI: 5.30116
L2C DATA PREFETCH MPKI: 0.32334
L2C INSTRUCTION PREFETCH MPKI: 4.97782
L2C WRITEBACK ACCESS:     449931  HIT:     426970  MISS:      22961  HIT %:    94.8968  MISS %:    5.10323   MPKI: 0.45922
L2C LOAD TRANSLATION ACCESS:       2028  HIT:        529  MISS:       1499  HIT %:    26.0848  MISS %:    73.9152   MPKI: 0.02998
L2C TRANSLATION FROM L1D PREFETCHER ACCESS:       4479  HIT:       4189  MISS:        290  HIT %:    93.5253  MISS %:    6.47466   MPKI: 0.0058
L2C PREFETCH  REQUESTED:      65705  ISSUED:      65705  USEFUL:      13199  USELESS:     252160
L2C USEFUL LOAD PREFETCHES:      13199 PREFETCH ISSUED TO LOWER LEVEL:     279726  ACCURACY: 4.71855
L2C TIMELY PREFETCHES:      13199 LATE PREFETCHES: 2998 DROPPED PREFETCHES: 0
L2C PREFETCHES SAME FILL-ORIGIN LEVEL: 19165 DIFFERENT FILL-ORIGIN LEVEL: 11670
L2C AVERAGE MISS LATENCY: 36.3059 cycles
L2C RQ	ACCESS:    1112216	FORWARD:          0	MERGED:          0	TO_CACHE:    1112200
L2C WQ	ACCESS:     449931	FORWARD:         16	MERGED:          0	TO_CACHE:     449931
L2C PQ	ACCESS:    3499355	FORWARD:          0	MERGED:        630	TO_CACHE:    3498725

L2C Instructions Evicting Data 107586
L2C Translations Evicting Data 1012
L2C Data Evicting Data 74683
L2C Instructions Evicting Instructions 169732
L2C Translations Evicting Instructions 758
L2C Data Evicting Instructions 92973
L2C Instructions Evicting Translations 737
L2C Translations Evicting Translations 19
L2C Data Evicting Translations 974
L2C Dense regions hint from L2: 0
PSCL5 TOTAL     ACCESS:       6134  HIT:       6134  MISS:          0  HIT %:        100  MISS %:          0   MPKI: 0
PSCL5 LOAD TRANSLATION ACCESS:       1887  HIT:       1887  MISS:          0  HIT %:        100  MISS %:          0   MPKI: 0
PSCL5 TRANSLATION FROM L1D PREFETCHER ACCESS:       4247  HIT:       4247  MISS:          0  HIT %:        100  MISS %:          0   MPKI: 0
PSCL5 PREFETCH  REQUESTED:          0  ISSUED:          0  USEFUL:          0  USELESS:          0
PSCL5 USEFUL LOAD PREFETCHES:          0 PREFETCH ISSUED TO LOWER LEVEL:          0  ACCURACY: -nan
PSCL5 TIMELY PREFETCHES:          0 LATE PREFETCHES: 0 DROPPED PREFETCHES: 0
PSCL5 PREFETCHES SAME FILL-ORIGIN LEVEL: 0 DIFFERENT FILL-ORIGIN LEVEL: 0

PSCL4 TOTAL     ACCESS:       3964  HIT:       3948  MISS:         16  HIT %:    99.5964  MISS %:   0.403633   MPKI: 0.00032
PSCL4 LOAD TRANSLATION ACCESS:       1285  HIT:       1269  MISS:         16  HIT %:    98.7549  MISS %:    1.24514   MPKI: 0.00032
PSCL4 TRANSLATION FROM L1D PREFETCHER ACCESS:       2679  HIT:       2679  MISS:          0  HIT %:        100  MISS %:          0   MPKI: 0
PSCL4 PREFETCH  REQUESTED:          0  ISSUED:          0  USEFUL:          0  USELESS:          0
PSCL4 USEFUL LOAD PREFETCHES:          0 PREFETCH ISSUED TO LOWER LEVEL:          0  ACCURACY: -nan
PSCL4 TIMELY PREFETCHES:          0 LATE PREFETCHES: 0 DROPPED PREFETCHES: 0
PSCL4 PREFETCHES SAME FILL-ORIGIN LEVEL: 0 DIFFERENT FILL-ORIGIN LEVEL: 0

PSCL3 TOTAL     ACCESS:       5829  HIT:       5802  MISS:         27  HIT %:    99.5368  MISS %:   0.463201   MPKI: 0.00054
PSCL3 LOAD TRANSLATION ACCESS:       1792  HIT:       1765  MISS:         27  HIT %:    98.4933  MISS %:     1.5067   MPKI: 0.00054
PSCL3 TRANSLATION FROM L1D PREFETCHER ACCESS:       4037  HIT:       4037  MISS:          0  HIT %:        100  MISS %:          0   MPKI: 0
PSCL3 PREFETCH  REQUESTED:          0  ISSUED:          0  USEFUL:          0  USELESS:          0
PSCL3 USEFUL LOAD PREFETCHES:          0 PREFETCH ISSUED TO LOWER LEVEL:          0  ACCURACY: -nan
PSCL3 TIMELY PREFETCHES:          0 LATE PREFETCHES: 0 DROPPED PREFETCHES: 0
PSCL3 PREFETCHES SAME FILL-ORIGIN LEVEL: 0 DIFFERENT FILL-ORIGIN LEVEL: 0

PSCL2 TOTAL     ACCESS:       5953  HIT:       5815  MISS:        138  HIT %:    97.6818  MISS %:    2.31816   MPKI: 0.00276
PSCL2 LOAD TRANSLATION ACCESS:       1912  HIT:       1774  MISS:        138  HIT %:    92.7824  MISS %:    7.21757   MPKI: 0.00276
PSCL2 TRANSLATION FROM L1D PREFETCHER ACCESS:       4041  HIT:       4041  MISS:          0  HIT %:        100  MISS %:          0   MPKI: 0
PSCL2 PREFETCH  REQUESTED:          0  ISSUED:          0  USEFUL:          0  USELESS:          0
PSCL2 USEFUL LOAD PREFETCHES:          0 PREFETCH ISSUED TO LOWER LEVEL:          0  ACCURACY: -nan
PSCL2 TIMELY PREFETCHES:          0 LATE PREFETCHES: 0 DROPPED PREFETCHES: 0
PSCL2 PREFETCHES SAME FILL-ORIGIN LEVEL: 0 DIFFERENT FILL-ORIGIN LEVEL: 0

LLC TOTAL     ACCESS:     536138  HIT:     512046  MISS:      24092  HIT %:    95.5064  MISS %:    4.49362   MPKI: 0.48184
LLC LOAD      ACCESS:     124477  HIT:     119181  MISS:       5296  HIT %:    95.7454  MISS %:     4.2546   MPKI: 0.10592
LLC RFO       ACCESS:      54148  HIT:      42782  MISS:      11366  HIT %:    79.0094  MISS %:    20.9906   MPKI: 0.22732
LLC PREFETCH  ACCESS:     279698  HIT:     272716  MISS:       6982  HIT %:    97.5037  MISS %:    2.49626   MPKI: 0.13964
LLC WRITEBACK ACCESS:      76026  HIT:      75707  MISS:        319  HIT %:    99.5804  MISS %:   0.419593   MPKI: 0.00638
LLC LOAD TRANSLATION ACCESS:       1499  HIT:       1383  MISS:        116  HIT %:    92.2615  MISS %:    7.73849   MPKI: 0.00232
LLC TRANSLATION FROM L1D PREFETCHER ACCESS:        290  HIT:        277  MISS:         13  HIT %:    95.5172  MISS %:    4.48276   MPKI: 0.00026
LLC PREFETCH  REQUESTED:          0  ISSUED:          0  USEFUL:        320  USELESS:       3571
LLC USEFUL LOAD PREFETCHES:        320 PREFETCH ISSUED TO LOWER LEVEL:       6996  ACCURACY: 4.57404
LLC TIMELY PREFETCHES:        320 LATE PREFETCHES: 14 DROPPED PREFETCHES: 0
LLC PREFETCHES SAME FILL-ORIGIN LEVEL: 1163 DIFFERENT FILL-ORIGIN LEVEL: 0
LLC AVERAGE MISS LATENCY: 163.933 cycles
LLC RQ	ACCESS:     180418	FORWARD:          0	MERGED:          0	TO_CACHE:     180414
LLC WQ	ACCESS:      76026	FORWARD:          4	MERGED:          0	TO_CACHE:      76026
LLC PQ	ACCESS:     279726	FORWARD:          0	MERGED:          9	TO_CACHE:     279717

LLC Dense regions hint to LLC: 0

RAW hits: 1159648
Loads Generated: 12740644
Loads sent to L1D: 11580997
Stores Generated: 6957596
Stores sent to L1D: 6957599
Major fault: 0 Minor fault: 2563
Allocated PAGES: 2563
I-Shadow cache 408 bytes
Touched + WorthPF tables 6144 bytes 
MMA filter 174 bytes 
FNL filter 272 bytes 
TOTAL PREFETCHER STORAGE SIZE: 25174 bytes
CPU 0 L1I next line prefetcher final stats
------------------
Depth Distribution
------------------
depth 0: 40150
depth 1: 37935
depth 2: 28448
depth 3: 1125
depth 4: 436
depth 5: 524
depth 6: 249
depth 7: 322
depth 8: 395
depth 9: 605
depth 10: 126
depth 11: 564
depth 12: 303
depth 13: 99
depth 14: 28
depth 15: 0
depth 16: 0
depth 17: 0
depth 18: 0
depth 19: 0
depth 20: 0
depth 21: 0
depth 22: 0
depth 23: 0
depth 24: 0
depth 25: 0
depth 26: 0
depth 27: 0
depth 28: 0
depth 29: 0
Total: 111309
------------------
ST read accesses: 43764
ST write accesses: 39465
PT read accesses: 1008711
PT write accesses: 52366
FILTER read accesses: 866947
FILTER write accesses: 1113739
GHR read accesses: 345911
GHR write accesses: 4143
PERC read accesses: 7428699
PERC write accesses: 697821
GHR counter read accesses: 166458
GHR counter write accesses: 168350
GHR ip read accesses: 683430
GHR ip write accesses: 332916
ST tag read accesses: 3304444
ST tag write accesses: 697595

DRAM Statistics
 CHANNEL 0
 RQ ROW_BUFFER_HIT:       8091  ROW_BUFFER_MISS:      15675
 DBUS_CONGESTED:         32
 WQ ROW_BUFFER_HIT:       1219  ROW_BUFFER_MISS:      10579  FULL:          0

 AVG_CONGESTED_CYCLE: 4
 All warmup complete: 2
Channel 0 Bank busy for read cycles: 0
Channel 0 Bank busy for write cycles: 0
Channel 0
Rank 0
0banks busy for read cycles: 75630001
0banks busy for write cycles: 2944
1banks busy for read cycles: 866142
1banks busy for write cycles: 384499
2banks busy for read cycles: 193187
2banks busy for write cycles: 113876
3banks busy for read cycles: 96114
3banks busy for write cycles: 70562
4banks busy for read cycles: 58986
4banks busy for write cycles: 45243
5banks busy for read cycles: 33207
5banks busy for write cycles: 37054
6banks busy for read cycles: 25899
6banks busy for write cycles: 34415
7banks busy for read cycles: 26725
7banks busy for write cycles: 37913
8banks busy for read cycles: 61028
8banks busy for write cycles: 68193

CPU 0 Branch Prediction Accuracy: 99.8142% MPKI: 0.34676 Average ROB Occupancy at Mispredict: 70.0694
Branch types
NOT_BRANCH: 40668669 81.3373%
BRANCH_DIRECT_JUMP: 531697 1.06339%
BRANCH_INDIRECT: 199023 0.398046%
BRANCH_CONDITIONAL: 6211452 12.4229%
BRANCH_DIRECT_CALL: 1010905 2.02181%
BRANCH_INDIRECT_CALL: 183501 0.367002%
BRANCH_RETURN: 1194407 2.38881%
BRANCH_OTHER: 0 0%

DRAM PAGES: 1048576
Allocated PAGES: 2563
