Initialize SIGNATURE TABLE
ST_SET: 1
ST_WAY: 256
ST_TAG_BIT: 16
ST_TAG_MASK: ffff

Initialize PATTERN TABLE
PT_SET: 512
PT_WAY: 4
SIG_DELTA_BIT: 7
C_SIG_BIT: 4
C_DELTA_BIT: 4

Initialize PREFETCH FILTER
FILTER_SET: 1024

Initialize PERCEPTRON
PERC_ENTRIES: 4096
PERC_FEATURES: 9

*** ChampSim Multicore Out-of-Order Simulator ***

Warmup Instructions: 50000000
Simulation Instructions: 50000000
Number of CPUs: 1
LLC sets: 2048
LLC ways: 16
Off-chip DRAM Size: 4096 MB Channels: 1 Width: 64-bit Data Rate: 6400 MT/s
CPU 0 runs ../IPC-traces//server_026.champsimtrace.xz
.xz
NUM_OF_IPS_IN_CRITICAL_IP_TRAINING: 64
NUM_OF_CRITICAL_IP_TRAINING_TABLE_WAYS: 2
NUM_OF_CRITICAL_IP_TRAINING_TABLE_SETS: 32
WOBBLY_CRITICAL_IP_CACHE_SETS: 32
WOBBLY_CRITICAL_IP_CACHE_WAYS: 4
BTB has LRU replacement policy
ITLB has LRU replacement policy
DTLB has LRU replacement policy
STLB has LRU replacement policy
CPU 0 L1I next line prefetcher
L1I has LRU replacement policy
L1D has LRU replacement policy
Initialize SRRIP state for L2C
Initialize DRRIP state for LLC
Heartbeat CPU 0 instructions: 10000000 cycles: 2882160 heartbeat IPC: 3.46962 cumulative IPC: 3.46962 (Simulation time: 0 hr 3 min 43 sec) 
Heartbeat CPU 0 instructions: 20000002 cycles: 5761827 heartbeat IPC: 3.47262 cumulative IPC: 3.47112 (Simulation time: 0 hr 6 min 42 sec) 
Heartbeat CPU 0 instructions: 30000003 cycles: 8638758 heartbeat IPC: 3.47593 cumulative IPC: 3.47272 (Simulation time: 0 hr 9 min 32 sec) 
Heartbeat CPU 0 instructions: 40000001 cycles: 11518942 heartbeat IPC: 3.472 cumulative IPC: 3.47254 (Simulation time: 0 hr 11 min 59 sec) 
Heartbeat CPU 0 instructions: 50000000 cycles: 14396526 heartbeat IPC: 3.47514 cumulative IPC: 3.47306 (Simulation time: 0 hr 14 min 12 sec) 

Warmup complete CPU 0 instructions: 50000004 cycles: 14396527 (Simulation time: 0 hr 14 min 12 sec) 

% increase in all ip prefetch 431.571
% increase in all ip prefetch 3.61049
*** Reached end of trace for Core: 0 Repeating trace: ../IPC-traces//server_026.champsimtrace.xz
Heartbeat CPU 0 instructions: 60000000 cycles: 30917874 heartbeat IPC: 0.605277 cumulative IPC: 0.605277 (Simulation time: 0 hr 16 min 47 sec) 
Heartbeat CPU 0 instructions: 70000001 cycles: 47226539 heartbeat IPC: 0.613171 cumulative IPC: 0.609199 (Simulation time: 0 hr 19 min 21 sec) 
Heartbeat CPU 0 instructions: 80000003 cycles: 63621117 heartbeat IPC: 0.609958 cumulative IPC: 0.609451 (Simulation time: 0 hr 21 min 54 sec) 
Heartbeat CPU 0 instructions: 90000002 cycles: 79890925 heartbeat IPC: 0.614635 cumulative IPC: 0.610739 (Simulation time: 0 hr 24 min 26 sec) 
Heartbeat CPU 0 instructions: 100000000 cycles: 96213925 heartbeat IPC: 0.612632 cumulative IPC: 0.611117 (Simulation time: 0 hr 27 min 8 sec) 
Finished CPU 0 instructions: 50000000 cycles: 81817399 cumulative IPC: 0.611117 (Simulation time: 0 hr 27 min 8 sec) 

ChampSim completed all CPUs

Region of Interest Statistics

CPU 0 cumulative IPC: 0.611117 instructions: 50000000 cycles: 81817399

CPU 0 Average Load ROB stall cycles: 1.98957e+07
CPU 0 Fraction of times ROB stalled by Loads: 35.911
CPU 0 Percentage of Load stall cycles in Total stall cycles: 2.85128e+08
Issued all: 28254391
Issued LT all: 22466273
rob_not_full_when_issued_lt_all: 22082118
Issued LT one: 17431082
rob_not_full_when_issued_lt_one: 17096922
 Total stall cycles: 68441228
 Total load stall cycles: 195145404696033
CPU 0 NUM of IPS identified critical: 0
CPU 0 Num of Load IPs stalling ROB: 11903
Threshold modification factor: -1
Max PIST entries: 64
Min PIST entries: 0
Avg PIST entries: 32
Trouble in retire width: 0.90968
MaC = Marked as critical.
lt_50_percent_before_Mac: 0
gt_90_percent_before_Mac: 0
gt_75_percent_before_Mac: 0
gt_50_percent_before_Mac: 0
stall_proportion_bin_same_before_after: 0
stall_proportion_bin_lower_before_after: 0
stall_proportion_bin_upper_before_after: 0
average_stall_proportion_before: -nan
average_stall_proportion_after: -nan
Critical IP stalls, total frequency: 0
Non-critical IP stalls, total frequency: 3522302
Total Freq all stalling IPs: 3522302
stat_90_percent_critical_ip_stalls_freq: 3170200
stat_90_percent_non_critical_ip_stalls_freq: 352102
Critical_IP_ROB_Stalls_Bucket_0: 0
Non-critical_IP_ROB_Stalls_Bucket_0: 2506325
Critical_IP_ROB_Stalls_Bucket_1: 0
Non-critical_IP_ROB_Stalls_Bucket_1: 683184
Critical_IP_ROB_Stalls_Bucket_2: 0
Non-critical_IP_ROB_Stalls_Bucket_2: 226170
Critical_IP_ROB_Stalls_Bucket_3: 0
Non-critical_IP_ROB_Stalls_Bucket_3: 56186
Critical_IP_ROB_Stalls_Bucket_4: 0
Non-critical_IP_ROB_Stalls_Bucket_4: 20133
Critical_IP_ROB_Stalls_Bucket_5: 0
Non-critical_IP_ROB_Stalls_Bucket_5: 10911
Critical_IP_ROB_Stalls_Bucket_6: 0
Non-critical_IP_ROB_Stalls_Bucket_6: 19393
0 => IPs accounting for >50 percent of stalls, 1 => 55, 2 => 60, 3 => 65 and so on till 90.
percent50: 50.0057 num IPs:  548
percent55: 55.0167 num IPs: 768
percent60: 60.0151 num IPs: 1011
percent65: 65.0196 num IPs: 1258
percent70: 70.0045 num IPs: 1539
percent75: 75.0013 num IPs: 1897
percent80: 80.0008 num IPs: 2278
percent85: 85.0049 num IPs: 2800
percent90: 90.0042 num IPs: 3506
Critical_ROB_Stalls_Percent_0_Bucket_0: 1024815
Non-critical_ROB_Stalls_Percent_0_Bucket_0: 1481510
Critical_ROB_Stalls_Percent_0_Bucket_1: 464284
Non-critical_ROB_Stalls_Percent_0_Bucket_1: 218900
Critical_ROB_Stalls_Percent_0_Bucket_2: 176835
Non-critical_ROB_Stalls_Percent_0_Bucket_2: 49335
Critical_ROB_Stalls_Percent_0_Bucket_3: 50539
Non-critical_ROB_Stalls_Percent_0_Bucket_3: 5647
Critical_ROB_Stalls_Percent_0_Bucket_4: 17783
Non-critical_ROB_Stalls_Percent_0_Bucket_4: 2350
Critical_ROB_Stalls_Percent_0_Bucket_5: 9720
Non-critical_ROB_Stalls_Percent_0_Bucket_5: 1191
Critical_ROB_Stalls_Percent_0_Bucket_6: 17376
Non-critical_ROB_Stalls_Percent_0_Bucket_6: 2017
Critical_ROB_Stalls_Percent_1_Bucket_0: 1158040
Non-critical_ROB_Stalls_Percent_1_Bucket_0: 1348285
Critical_ROB_Stalls_Percent_1_Bucket_1: 494076
Non-critical_ROB_Stalls_Percent_1_Bucket_1: 189108
Critical_ROB_Stalls_Percent_1_Bucket_2: 187662
Non-critical_ROB_Stalls_Percent_1_Bucket_2: 38508
Critical_ROB_Stalls_Percent_1_Bucket_3: 51646
Non-critical_ROB_Stalls_Percent_1_Bucket_3: 4540
Critical_ROB_Stalls_Percent_1_Bucket_4: 18468
Non-critical_ROB_Stalls_Percent_1_Bucket_4: 1665
Critical_ROB_Stalls_Percent_1_Bucket_5: 9859
Non-critical_ROB_Stalls_Percent_1_Bucket_5: 1052
Critical_ROB_Stalls_Percent_1_Bucket_6: 18101
Non-critical_ROB_Stalls_Percent_1_Bucket_6: 1292
Critical_ROB_Stalls_Percent_2_Bucket_0: 1283239
Non-critical_ROB_Stalls_Percent_2_Bucket_0: 1223086
Critical_ROB_Stalls_Percent_2_Bucket_1: 535996
Non-critical_ROB_Stalls_Percent_2_Bucket_1: 147188
Critical_ROB_Stalls_Percent_2_Bucket_2: 196053
Non-critical_ROB_Stalls_Percent_2_Bucket_2: 30117
Critical_ROB_Stalls_Percent_2_Bucket_3: 52195
Non-critical_ROB_Stalls_Percent_2_Bucket_3: 3991
Critical_ROB_Stalls_Percent_2_Bucket_4: 18469
Non-critical_ROB_Stalls_Percent_2_Bucket_4: 1664
Critical_ROB_Stalls_Percent_2_Bucket_5: 9859
Non-critical_ROB_Stalls_Percent_2_Bucket_5: 1052
Critical_ROB_Stalls_Percent_2_Bucket_6: 18101
Non-critical_ROB_Stalls_Percent_2_Bucket_6: 1292
Critical_ROB_Stalls_Percent_3_Bucket_0: 1430292
Non-critical_ROB_Stalls_Percent_3_Bucket_0: 1076033
Critical_ROB_Stalls_Percent_3_Bucket_1: 560485
Non-critical_ROB_Stalls_Percent_3_Bucket_1: 122699
Critical_ROB_Stalls_Percent_3_Bucket_2: 200261
Non-critical_ROB_Stalls_Percent_3_Bucket_2: 25909
Critical_ROB_Stalls_Percent_3_Bucket_3: 52557
Non-critical_ROB_Stalls_Percent_3_Bucket_3: 3629
Critical_ROB_Stalls_Percent_3_Bucket_4: 18616
Non-critical_ROB_Stalls_Percent_3_Bucket_4: 1517
Critical_ROB_Stalls_Percent_3_Bucket_5: 9867
Non-critical_ROB_Stalls_Percent_3_Bucket_5: 1044
Critical_ROB_Stalls_Percent_3_Bucket_6: 18109
Non-critical_ROB_Stalls_Percent_3_Bucket_6: 1284
Critical_ROB_Stalls_Percent_4_Bucket_0: 1575442
Non-critical_ROB_Stalls_Percent_4_Bucket_0: 930883
Critical_ROB_Stalls_Percent_4_Bucket_1: 585118
Non-critical_ROB_Stalls_Percent_4_Bucket_1: 98066
Critical_ROB_Stalls_Percent_4_Bucket_2: 205144
Non-critical_ROB_Stalls_Percent_4_Bucket_2: 21026
Critical_ROB_Stalls_Percent_4_Bucket_3: 53181
Non-critical_ROB_Stalls_Percent_4_Bucket_3: 3005
Critical_ROB_Stalls_Percent_4_Bucket_4: 18843
Non-critical_ROB_Stalls_Percent_4_Bucket_4: 1290
Critical_ROB_Stalls_Percent_4_Bucket_5: 9933
Non-critical_ROB_Stalls_Percent_4_Bucket_5: 978
Critical_ROB_Stalls_Percent_4_Bucket_6: 18109
Non-critical_ROB_Stalls_Percent_4_Bucket_6: 1284
Critical_ROB_Stalls_Percent_5_Bucket_0: 1719038
Non-critical_ROB_Stalls_Percent_5_Bucket_0: 787287
Critical_ROB_Stalls_Percent_5_Bucket_1: 609336
Non-critical_ROB_Stalls_Percent_5_Bucket_1: 73848
Critical_ROB_Stalls_Percent_5_Bucket_2: 212536
Non-critical_ROB_Stalls_Percent_5_Bucket_2: 13634
Critical_ROB_Stalls_Percent_5_Bucket_3: 53795
Non-critical_ROB_Stalls_Percent_5_Bucket_3: 2391
Critical_ROB_Stalls_Percent_5_Bucket_4: 18943
Non-critical_ROB_Stalls_Percent_5_Bucket_4: 1190
Critical_ROB_Stalls_Percent_5_Bucket_5: 9980
Non-critical_ROB_Stalls_Percent_5_Bucket_5: 931
Critical_ROB_Stalls_Percent_5_Bucket_6: 18148
Non-critical_ROB_Stalls_Percent_5_Bucket_6: 1245
Critical_ROB_Stalls_Percent_6_Bucket_0: 1872704
Non-critical_ROB_Stalls_Percent_6_Bucket_0: 633621
Critical_ROB_Stalls_Percent_6_Bucket_1: 628029
Non-critical_ROB_Stalls_Percent_6_Bucket_1: 55155
Critical_ROB_Stalls_Percent_6_Bucket_2: 215859
Non-critical_ROB_Stalls_Percent_6_Bucket_2: 10311
Critical_ROB_Stalls_Percent_6_Bucket_3: 53902
Non-critical_ROB_Stalls_Percent_6_Bucket_3: 2284
Critical_ROB_Stalls_Percent_6_Bucket_4: 19000
Non-critical_ROB_Stalls_Percent_6_Bucket_4: 1133
Critical_ROB_Stalls_Percent_6_Bucket_5: 10187
Non-critical_ROB_Stalls_Percent_6_Bucket_5: 724
Critical_ROB_Stalls_Percent_6_Bucket_6: 18195
Non-critical_ROB_Stalls_Percent_6_Bucket_6: 1198
Critical_ROB_Stalls_Percent_7_Bucket_0: 2029291
Non-critical_ROB_Stalls_Percent_7_Bucket_0: 477034
Critical_ROB_Stalls_Percent_7_Bucket_1: 644296
Non-critical_ROB_Stalls_Percent_7_Bucket_1: 38888
Critical_ROB_Stalls_Percent_7_Bucket_2: 218295
Non-critical_ROB_Stalls_Percent_7_Bucket_2: 7875
Critical_ROB_Stalls_Percent_7_Bucket_3: 54459
Non-critical_ROB_Stalls_Percent_7_Bucket_3: 1727
Critical_ROB_Stalls_Percent_7_Bucket_4: 19196
Non-critical_ROB_Stalls_Percent_7_Bucket_4: 937
Critical_ROB_Stalls_Percent_7_Bucket_5: 10264
Non-critical_ROB_Stalls_Percent_7_Bucket_5: 647
Critical_ROB_Stalls_Percent_7_Bucket_6: 18331
Non-critical_ROB_Stalls_Percent_7_Bucket_6: 1062
Critical_ROB_Stalls_Percent_8_Bucket_0: 2193537
Non-critical_ROB_Stalls_Percent_8_Bucket_0: 312788
Critical_ROB_Stalls_Percent_8_Bucket_1: 653924
Non-critical_ROB_Stalls_Percent_8_Bucket_1: 29260
Critical_ROB_Stalls_Percent_8_Bucket_2: 220323
Non-critical_ROB_Stalls_Percent_8_Bucket_2: 5847
Critical_ROB_Stalls_Percent_8_Bucket_3: 54621
Non-critical_ROB_Stalls_Percent_8_Bucket_3: 1565
Critical_ROB_Stalls_Percent_8_Bucket_4: 19199
Non-critical_ROB_Stalls_Percent_8_Bucket_4: 934
Critical_ROB_Stalls_Percent_8_Bucket_5: 10265
Non-critical_ROB_Stalls_Percent_8_Bucket_5: 646
Critical_ROB_Stalls_Percent_8_Bucket_6: 18331
Non-critical_ROB_Stalls_Percent_8_Bucket_6: 1062
Average ROB occupancy Load Stall Begin: 36.6405
Average ROB occupancy Load Stall End: 44.6231
Min ROB occupancy Load Stall Begin: 1
Max ROB occupancy Load Stall Begin: 352
Min ROB occupancy Load Stall End: 1
Max ROB occupancy Load Stall End: 352
Average ROB occupancy Critical Load Stall Begin: -nan
Average ROB occupancy Critical Load Stall End: -nan
Min ROB occupancy Critical Load Stall Begin: 400
Max ROB occupancy Critical Load Stall Begin: 0
Min ROB occupancy Critical Load Stall End: 400
Max ROB occupancy Critical Load Stall End: 0
 ROB Load Stall Begin Bucket Count 0: 2736147
 ROB Load Stall End Bucket Count 0: 2506325
 ROB Critical Load Stall Begin Bucket Count 0: 0
 ROB Critical Load Stall End Bucket Count 0: 0
 ROB Load Stall Begin Bucket Count 1: 528948
 ROB Load Stall End Bucket Count 1: 683184
 ROB Critical Load Stall Begin Bucket Count 1: 0
 ROB Critical Load Stall End Bucket Count 1: 0
 ROB Load Stall Begin Bucket Count 2: 169714
 ROB Load Stall End Bucket Count 2: 226170
 ROB Critical Load Stall Begin Bucket Count 2: 0
 ROB Critical Load Stall End Bucket Count 2: 0
 ROB Load Stall Begin Bucket Count 3: 42560
 ROB Load Stall End Bucket Count 3: 56186
 ROB Critical Load Stall Begin Bucket Count 3: 0
 ROB Critical Load Stall End Bucket Count 3: 0
 ROB Load Stall Begin Bucket Count 4: 17062
 ROB Load Stall End Bucket Count 4: 20133
 ROB Critical Load Stall Begin Bucket Count 4: 0
 ROB Critical Load Stall End Bucket Count 4: 0
 ROB Load Stall Begin Bucket Count 5: 10031
 ROB Load Stall End Bucket Count 5: 10911
 ROB Critical Load Stall Begin Bucket Count 5: 0
 ROB Critical Load Stall End Bucket Count 5: 0
 ROB Load Stall Begin Bucket Count 6: 17840
 ROB Load Stall End Bucket Count 6: 19393
 ROB Critical Load Stall Begin Bucket Count 6: 0
 ROB Critical Load Stall End Bucket Count 6: 0
PIST Tag Read Accesses: 2320908
PIST Read Accesses: 1160454
PIST Tag Write Accesses: 2320908
PIST Write Accesses: 1160454
Criticality detector called times: 3409762
Max global_stall_cycles_count: 1955845
Threshold Modified: 1 times, factor: -1
Sturdy critical IP cache stats: 
 Unused entries: 0
CIC Tag Read Accesses: 0
CIC Read Accesses: 0
CIC Tag Write Accesses: 0
CIC Write Accesses: 0
Wobbly critical IP cache stats: 
 Unused entries: 125
CIC Tag Read Accesses: 85685032
CIC Read Accesses: 0
CIC Tag Write Accesses: 3
CIC Write Accesses: 0
ITLB TOTAL     ACCESS:   10080544  HIT:    9420342  MISS:     660202  HIT %:    93.4507  MISS %:    6.54927   MPKI: 13.204
ITLB LOAD TRANSLATION ACCESS:    8120544  HIT:    8026711  MISS:      93833  HIT %:    98.8445  MISS %:     1.1555   MPKI: 1.87666
ITLB TRANSLATION FROM L1D PREFETCHER ACCESS:    1960000  HIT:    1393631  MISS:     566369  HIT %:    71.1036  MISS %:    28.8964   MPKI: 11.3274
ITLB PREFETCH  REQUESTED:          0  ISSUED:          0  USEFUL:     452995  USELESS:     113374
ITLB USEFUL LOAD PREFETCHES:     452995 PREFETCH ISSUED TO LOWER LEVEL:          0  ACCURACY: inf
ITLB TIMELY PREFETCHES:     452995 LATE PREFETCHES: 403 DROPPED PREFETCHES: 3863
ITLB PREFETCHES SAME FILL-ORIGIN LEVEL: 0 DIFFERENT FILL-ORIGIN LEVEL: 0
ITLB AVERAGE MISS LATENCY: 24987.6 cycles
ITLB RQ	ACCESS:   15116941	FORWARD:          0	MERGED:    4991608	TO_CACHE:   10125333

DTLB TOTAL     ACCESS:   11555622  HIT:   11078340  MISS:     477282  HIT %:    95.8697  MISS %:     4.1303   MPKI: 9.54564
DTLB LOAD TRANSLATION ACCESS:   11555622  HIT:   11078340  MISS:     477282  HIT %:    95.8697  MISS %:     4.1303   MPKI: 9.54564
DTLB PREFETCH  REQUESTED:          0  ISSUED:          0  USEFUL:          0  USELESS:          0
DTLB USEFUL LOAD PREFETCHES:          0 PREFETCH ISSUED TO LOWER LEVEL:          0  ACCURACY: -nan
DTLB TIMELY PREFETCHES:          0 LATE PREFETCHES: 0 DROPPED PREFETCHES: 0
DTLB PREFETCHES SAME FILL-ORIGIN LEVEL: 0 DIFFERENT FILL-ORIGIN LEVEL: 0
DTLB AVERAGE MISS LATENCY: 9.24809 cycles
DTLB RQ	ACCESS:   15018169	FORWARD:          0	MERGED:    3436229	TO_CACHE:   11581940

STLB TOTAL     ACCESS:    1137484  HIT:    1135384  MISS:       2100  HIT %:    99.8154  MISS %:   0.184618   MPKI: 0.042
STLB LOAD TRANSLATION ACCESS:     570712  HIT:     568698  MISS:       2014  HIT %:    99.6471  MISS %:   0.352893   MPKI: 0.04028
STLB TRANSLATION FROM L1D PREFETCHER ACCESS:     566772  HIT:     566686  MISS:         86  HIT %:    99.9848  MISS %:  0.0151737   MPKI: 0.00172
STLB PREFETCH  REQUESTED:          0  ISSUED:          0  USEFUL:         79  USELESS:          8
STLB USEFUL LOAD PREFETCHES:         79 PREFETCH ISSUED TO LOWER LEVEL:          0  ACCURACY: inf
STLB TIMELY PREFETCHES:         79 LATE PREFETCHES: 0 DROPPED PREFETCHES: 3863
STLB PREFETCHES SAME FILL-ORIGIN LEVEL: 0 DIFFERENT FILL-ORIGIN LEVEL: 0
STLB AVERAGE MISS LATENCY: 59.0786 cycles
STLB RQ	ACCESS:    1141347	FORWARD:          0	MERGED:          0	TO_CACHE:    1141347

STLB Hit, L1D data hit: 0
STLB Hit, L2C data hit: 0
STLB Hit, LLC data hit: 0
STLB Hit, LLC data miss: 0
STLB STLB hints to L2: 0
L1D TOTAL     ACCESS:   14506436  HIT:   13442719  MISS:    1063717  HIT %:    92.6673  MISS %:    7.33272   MPKI: 21.2743
L1D LOAD      ACCESS:    8156280  HIT:    7383839  MISS:     772441  HIT %:    90.5295  MISS %:    9.47051   MPKI: 15.4488
L1D RFO       ACCESS:    6350156  HIT:    6058880  MISS:     291276  HIT %:    95.4131  MISS %:    4.58691   MPKI: 5.82552
L1D PREFETCH  REQUESTED:          0  ISSUED:          0  USEFUL:          0  USELESS:          0
L1D USEFUL LOAD PREFETCHES:          0 PREFETCH ISSUED TO LOWER LEVEL:          0  ACCURACY: -nan
L1D TIMELY PREFETCHES:          0 LATE PREFETCHES: 0 DROPPED PREFETCHES: 0
L1D PREFETCHES SAME FILL-ORIGIN LEVEL: 0 DIFFERENT FILL-ORIGIN LEVEL: 0
L1D AVERAGE MISS LATENCY: 24.052 cycles
L1D RQ	ACCESS:   11660403	FORWARD:          0	MERGED:    3335003	TO_CACHE:    8186827
L1D WQ	ACCESS:    6901339	FORWARD:     138573	MERGED:      69997	TO_CACHE:    6831342

L1D UNIQUE REGIONS ACCESSED: 0
L1D REGIONS CONFLICTS: 0
L1D Cross Page Prefetch Requests: 0
L1D Same Page Prefetch Requests: 0
L1D ROI Sum of L1D PQ occupancy: 0
L1D PREFETCHES PUSHED FROM L2C: 0
L1I TOTAL     ACCESS:   14962783  HIT:   10897544  MISS:    4065239  HIT %:     72.831  MISS %:     27.169   MPKI: 81.3048
L1I LOAD      ACCESS:    9554862  HIT:    9275651  MISS:     279211  HIT %:    97.0778  MISS %:    2.92219   MPKI: 5.58422
L1I PREFETCH  ACCESS:    5407921  HIT:    1621893  MISS:    3786028  HIT %:    29.9911  MISS %:    70.0089   MPKI: 75.7206
L1I PREFETCH  REQUESTED:    5670091  ISSUED:    5659789  USEFUL:    2588915  USELESS:    1197152
L1I USEFUL LOAD PREFETCHES:    2588915 PREFETCH ISSUED TO LOWER LEVEL:    3817079  ACCURACY: 67.8245
L1I TIMELY PREFETCHES:    2588915 LATE PREFETCHES: 31053 DROPPED PREFETCHES: 9297
L1I PREFETCHES SAME FILL-ORIGIN LEVEL: 3817079 DIFFERENT FILL-ORIGIN LEVEL: 0
L1I AVERAGE MISS LATENCY: 411873 cycles
L1I RQ	ACCESS:   13499714	FORWARD:          0	MERGED:    3920346	TO_CACHE:    9579368
L1I PQ	ACCESS:    5659789	FORWARD:          0	MERGED:     122216	TO_CACHE:    5537573

BTB TOTAL     ACCESS:    5981441  HIT:    3992143  MISS:    1989298  HIT %:    66.7422  MISS %:    33.2578   MPKI: 39.786
BTB BRANCH_DIRECT_JUMP	ACCESS:     522043  HIT:     347789  MISS:     174254
BTB BRANCH_INDIRECT	ACCESS:     204034  HIT:     166604  MISS:      37430
BTB BRANCH_CONDITIONAL	ACCESS:    3043077  HIT:    2486506  MISS:     556571
BTB BRANCH_DIRECT_CALL	ACCESS:     932385  HIT:     529353  MISS:     403032
BTB BRANCH_INDIRECT_CALL	ACCESS:     173762  HIT:      95752  MISS:      78010
BTB BRANCH_RETURN	ACCESS:    1106140  HIT:     366139  MISS:     740001
BTB BRANCH_OTHER ACCESS:          0  HIT:          0  MISS:          0

L2C TOTAL     ACCESS:    5680509  HIT:    5116499  MISS:     564010  HIT %:    90.0711  MISS %:    9.92886   MPKI: 11.2802
L2C LOAD      ACCESS:    1020504  HIT:     854700  MISS:     165804  HIT %:    83.7527  MISS %:    16.2473   MPKI: 3.31608
L2C DATA LOAD MPKI: 2.6195
L2C INSTRUCTION LOAD MPKI: 0.69658
L2C RFO       ACCESS:     291275  HIT:     220118  MISS:      71157  HIT %:    75.5705  MISS %:    24.4295   MPKI: 1.42314
L2C PREFETCH  ACCESS:    3848889  HIT:    3550038  MISS:     298851  HIT %:    92.2354  MISS %:     7.7646   MPKI: 5.97702
L2C DATA PREFETCH MPKI: 0.2202
L2C INSTRUCTION PREFETCH MPKI: 5.75682
L2C WRITEBACK ACCESS:     511521  HIT:     484878  MISS:      26643  HIT %:    94.7914  MISS %:    5.20858   MPKI: 0.53286
L2C LOAD TRANSLATION ACCESS:       2128  HIT:        723  MISS:       1405  HIT %:    33.9756  MISS %:    66.0244   MPKI: 0.0281
L2C TRANSLATION FROM L1D PREFETCHER ACCESS:       6192  HIT:       6042  MISS:        150  HIT %:    97.5775  MISS %:    2.42248   MPKI: 0.003
L2C PREFETCH  REQUESTED:      37383  ISSUED:      37382  USEFUL:      11287  USELESS:     288675
L2C USEFUL LOAD PREFETCHES:      11287 PREFETCH ISSUED TO LOWER LEVEL:     303605  ACCURACY: 3.71766
L2C TIMELY PREFETCHES:      11287 LATE PREFETCHES: 1958 DROPPED PREFETCHES: 0
L2C PREFETCHES SAME FILL-ORIGIN LEVEL: 12968 DIFFERENT FILL-ORIGIN LEVEL: 2796
L2C AVERAGE MISS LATENCY: 35.5853 cycles
L2C RQ	ACCESS:    1320195	FORWARD:          0	MERGED:          0	TO_CACHE:    1320099
L2C WQ	ACCESS:     511521	FORWARD:         96	MERGED:          0	TO_CACHE:     511521
L2C PQ	ACCESS:    3854461	FORWARD:          0	MERGED:         96	TO_CACHE:    3854365

L2C Instructions Evicting Data 123898
L2C Translations Evicting Data 1006
L2C Data Evicting Data 103946
L2C Instructions Evicting Instructions 198283
L2C Translations Evicting Instructions 492
L2C Data Evicting Instructions 108219
L2C Instructions Evicting Translations 489
L2C Translations Evicting Translations 57
L2C Data Evicting Translations 977
L2C Dense regions hint from L2: 0
PSCL5 TOTAL     ACCESS:       5963  HIT:       5963  MISS:          0  HIT %:        100  MISS %:          0   MPKI: 0
PSCL5 LOAD TRANSLATION ACCESS:       2014  HIT:       2014  MISS:          0  HIT %:        100  MISS %:          0   MPKI: 0
PSCL5 TRANSLATION FROM L1D PREFETCHER ACCESS:       3949  HIT:       3949  MISS:          0  HIT %:        100  MISS %:          0   MPKI: 0
PSCL5 PREFETCH  REQUESTED:          0  ISSUED:          0  USEFUL:          0  USELESS:          0
PSCL5 USEFUL LOAD PREFETCHES:          0 PREFETCH ISSUED TO LOWER LEVEL:          0  ACCURACY: -nan
PSCL5 TIMELY PREFETCHES:          0 LATE PREFETCHES: 0 DROPPED PREFETCHES: 0
PSCL5 PREFETCHES SAME FILL-ORIGIN LEVEL: 0 DIFFERENT FILL-ORIGIN LEVEL: 0

PSCL4 TOTAL     ACCESS:       5873  HIT:       5866  MISS:          7  HIT %:    99.8808  MISS %:    0.11919   MPKI: 0.00014
PSCL4 LOAD TRANSLATION ACCESS:       1931  HIT:       1924  MISS:          7  HIT %:    99.6375  MISS %:   0.362506   MPKI: 0.00014
PSCL4 TRANSLATION FROM L1D PREFETCHER ACCESS:       3942  HIT:       3942  MISS:          0  HIT %:        100  MISS %:          0   MPKI: 0
PSCL4 PREFETCH  REQUESTED:          0  ISSUED:          0  USEFUL:          0  USELESS:          0
PSCL4 USEFUL LOAD PREFETCHES:          0 PREFETCH ISSUED TO LOWER LEVEL:          0  ACCURACY: -nan
PSCL4 TIMELY PREFETCHES:          0 LATE PREFETCHES: 0 DROPPED PREFETCHES: 0
PSCL4 PREFETCHES SAME FILL-ORIGIN LEVEL: 0 DIFFERENT FILL-ORIGIN LEVEL: 0

PSCL3 TOTAL     ACCESS:       5907  HIT:       5900  MISS:          7  HIT %:    99.8815  MISS %:   0.118503   MPKI: 0.00014
PSCL3 LOAD TRANSLATION ACCESS:       1965  HIT:       1958  MISS:          7  HIT %:    99.6438  MISS %:   0.356234   MPKI: 0.00014
PSCL3 TRANSLATION FROM L1D PREFETCHER ACCESS:       3942  HIT:       3942  MISS:          0  HIT %:        100  MISS %:          0   MPKI: 0
PSCL3 PREFETCH  REQUESTED:          0  ISSUED:          0  USEFUL:          0  USELESS:          0
PSCL3 USEFUL LOAD PREFETCHES:          0 PREFETCH ISSUED TO LOWER LEVEL:          0  ACCURACY: -nan
PSCL3 TIMELY PREFETCHES:          0 LATE PREFETCHES: 0 DROPPED PREFETCHES: 0
PSCL3 PREFETCHES SAME FILL-ORIGIN LEVEL: 0 DIFFERENT FILL-ORIGIN LEVEL: 0

PSCL2 TOTAL     ACCESS:       3734  HIT:       3621  MISS:        113  HIT %:    96.9738  MISS %:    3.02625   MPKI: 0.00226
PSCL2 LOAD TRANSLATION ACCESS:       2026  HIT:       1913  MISS:        113  HIT %:    94.4225  MISS %:    5.57749   MPKI: 0.00226
PSCL2 TRANSLATION FROM L1D PREFETCHER ACCESS:       1708  HIT:       1708  MISS:          0  HIT %:        100  MISS %:          0   MPKI: 0
PSCL2 PREFETCH  REQUESTED:          0  ISSUED:          0  USEFUL:          0  USELESS:          0
PSCL2 USEFUL LOAD PREFETCHES:          0 PREFETCH ISSUED TO LOWER LEVEL:          0  ACCURACY: -nan
PSCL2 TIMELY PREFETCHES:          0 LATE PREFETCHES: 0 DROPPED PREFETCHES: 0
PSCL2 PREFETCHES SAME FILL-ORIGIN LEVEL: 0 DIFFERENT FILL-ORIGIN LEVEL: 0

LLC TOTAL     ACCESS:     640832  HIT:     616586  MISS:      24246  HIT %:    96.2165  MISS %:    3.78352   MPKI: 0.48492
LLC LOAD      ACCESS:     163858  HIT:     155520  MISS:       8338  HIT %:    94.9114  MISS %:    5.08855   MPKI: 0.16676
LLC RFO       ACCESS:      71144  HIT:      58421  MISS:      12723  HIT %:    82.1166  MISS %:    17.8834   MPKI: 0.25446
LLC PREFETCH  ACCESS:     303602  HIT:     300834  MISS:       2768  HIT %:    99.0883  MISS %:    0.91172   MPKI: 0.05536
LLC WRITEBACK ACCESS:     100673  HIT:     100382  MISS:        291  HIT %:    99.7109  MISS %:   0.289055   MPKI: 0.00582
LLC LOAD TRANSLATION ACCESS:       1405  HIT:       1289  MISS:        116  HIT %:    91.7438  MISS %:    8.25623   MPKI: 0.00232
LLC TRANSLATION FROM L1D PREFETCHER ACCESS:        150  HIT:        140  MISS:         10  HIT %:    93.3333  MISS %:    6.66667   MPKI: 0.0002
LLC PREFETCH  REQUESTED:          0  ISSUED:          0  USEFUL:       1007  USELESS:       8042
LLC USEFUL LOAD PREFETCHES:       1007 PREFETCH ISSUED TO LOWER LEVEL:       2770  ACCURACY: 36.3538
LLC TIMELY PREFETCHES:       1007 LATE PREFETCHES: 2 DROPPED PREFETCHES: 0
LLC PREFETCHES SAME FILL-ORIGIN LEVEL: 170 DIFFERENT FILL-ORIGIN LEVEL: 0
LLC AVERAGE MISS LATENCY: 167.849 cycles
LLC RQ	ACCESS:     236558	FORWARD:          0	MERGED:          0	TO_CACHE:     236557
LLC WQ	ACCESS:     100673	FORWARD:          1	MERGED:          0	TO_CACHE:     100673
LLC PQ	ACCESS:     303605	FORWARD:          0	MERGED:          1	TO_CACHE:     303604

LLC Dense regions hint to LLC: 0

RAW hits: 955417
Loads Generated: 12615820
Loads sent to L1D: 11660403
Stores Generated: 6901350
Stores sent to L1D: 6901339
Major fault: 0 Minor fault: 2264
Allocated PAGES: 2264
I-Shadow cache 408 bytes
Touched + WorthPF tables 6144 bytes 
MMA filter 174 bytes 
FNL filter 272 bytes 
TOTAL PREFETCHER STORAGE SIZE: 25174 bytes
CPU 0 L1I next line prefetcher final stats
------------------
Depth Distribution
------------------
depth 0: 197899
depth 1: 8767446
depth 2: 376528
depth 3: 2541
depth 4: 980
depth 5: 1203
depth 6: 1046
depth 7: 1312
depth 8: 1302
depth 9: 1250
depth 10: 299
depth 11: 1300
depth 12: 460
depth 13: 74
depth 14: 153
depth 15: 0
depth 16: 0
depth 17: 0
depth 18: 0
depth 19: 0
depth 20: 0
depth 21: 0
depth 22: 0
depth 23: 0
depth 24: 0
depth 25: 0
depth 26: 0
depth 27: 0
depth 28: 0
depth 29: 0
Total: 9353793
------------------
ST read accesses: 3981101
ST write accesses: 604735
PT read accesses: 52493933
PT write accesses: 5340961
FILTER read accesses: 16165867
FILTER write accesses: 1299155
GHR read accesses: 9044835
GHR write accesses: 586887
PERC read accesses: 331865397
PERC write accesses: 402673
GHR counter read accesses: 9171672
GHR counter write accesses: 10842944
GHR ip read accesses: 14126223
GHR ip write accesses: 18343344
ST tag read accesses: 2073131569
ST tag write accesses: 223800029

DRAM Statistics
 CHANNEL 0
 RQ ROW_BUFFER_HIT:       9392  ROW_BUFFER_MISS:      14546
 DBUS_CONGESTED:          3
 WQ ROW_BUFFER_HIT:       1290  ROW_BUFFER_MISS:       9257  FULL:          0

 AVG_CONGESTED_CYCLE: 2
 All warmup complete: 2
Channel 0 Bank busy for read cycles: 0
Channel 0 Bank busy for write cycles: 0
Channel 0
Rank 0
0banks busy for read cycles: 79508090
0banks busy for write cycles: 2517
1banks busy for read cycles: 1054291
1banks busy for write cycles: 363043
2banks busy for read cycles: 138749
2banks busy for write cycles: 130038
3banks busy for read cycles: 66680
3banks busy for write cycles: 85871
4banks busy for read cycles: 35640
4banks busy for write cycles: 68824
5banks busy for read cycles: 31223
5banks busy for write cycles: 52915
6banks busy for read cycles: 29413
6banks busy for write cycles: 42299
7banks busy for read cycles: 29717
7banks busy for write cycles: 39501
8banks busy for read cycles: 58759
8banks busy for write cycles: 79830

CPU 0 Branch Prediction Accuracy: 99.822% MPKI: 0.32584 Average ROB Occupancy at Mispredict: 74.3985
Branch types
NOT_BRANCH: 40848387 81.6968%
BRANCH_DIRECT_JUMP: 522043 1.04409%
BRANCH_INDIRECT: 204034 0.408068%
BRANCH_CONDITIONAL: 6212933 12.4259%
BRANCH_DIRECT_CALL: 932385 1.86477%
BRANCH_INDIRECT_CALL: 173762 0.347524%
BRANCH_RETURN: 1106140 2.21228%
BRANCH_OTHER: 0 0%

DRAM PAGES: 1048576
Allocated PAGES: 2264
