Initialize SIGNATURE TABLE
ST_SET: 1
ST_WAY: 16
ST_TAG_BIT: 16
ST_TAG_MASK: ffff

Initialize PATTERN TABLE
PT_SET: 16
PT_WAY: 4
SIG_DELTA_BIT: 7
C_SIG_BIT: 4
C_DELTA_BIT: 4

Initialize PREFETCH FILTER
FILTER_SET: 1024

Initialize PERCEPTRON
PERC_ENTRIES: 4096
PERC_FEATURES: 9

*** ChampSim Multicore Out-of-Order Simulator ***

Warmup Instructions: 50000000
Simulation Instructions: 50000000
Number of CPUs: 1
LLC sets: 2048
LLC ways: 16
Off-chip DRAM Size: 4096 MB Channels: 1 Width: 64-bit Data Rate: 6400 MT/s
CPU 0 runs ../IPC-traces//server_003.champsimtrace.xz
.xz
BTB has LRU replacement policy
ITLB has LRU replacement policy
DTLB has LRU replacement policy
STLB has LRU replacement policy
CPU 0 L1I next line prefetcher
L1I has LRU replacement policy
L1D has LRU replacement policy
Initialize SRRIP state for L2C
Initialize DRRIP state for LLC
Heartbeat CPU 0 instructions: 10000002 cycles: 2772225 heartbeat IPC: 3.60721 cumulative IPC: 3.60721 (Simulation time: 0 hr 3 min 8 sec) 
Heartbeat CPU 0 instructions: 20000003 cycles: 5577368 heartbeat IPC: 3.56488 cumulative IPC: 3.58592 (Simulation time: 0 hr 5 min 38 sec) 
Heartbeat CPU 0 instructions: 30000002 cycles: 8337841 heartbeat IPC: 3.62257 cumulative IPC: 3.59805 (Simulation time: 0 hr 7 min 59 sec) 
Heartbeat CPU 0 instructions: 40000001 cycles: 11179236 heartbeat IPC: 3.5194 cumulative IPC: 3.57806 (Simulation time: 0 hr 10 min 36 sec) 
Heartbeat CPU 0 instructions: 50000002 cycles: 14142912 heartbeat IPC: 3.37419 cumulative IPC: 3.53534 (Simulation time: 0 hr 12 min 42 sec) 

Warmup complete CPU 0 instructions: 50000002 cycles: 14142912 (Simulation time: 0 hr 12 min 42 sec) 

Heartbeat CPU 0 instructions: 60000000 cycles: 32440980 heartbeat IPC: 0.546506 cumulative IPC: 0.546506 (Simulation time: 0 hr 15 min 24 sec) 
Heartbeat CPU 0 instructions: 70000003 cycles: 49391503 heartbeat IPC: 0.589952 cumulative IPC: 0.567399 (Simulation time: 0 hr 18 min 2 sec) 
Heartbeat CPU 0 instructions: 80000000 cycles: 66470251 heartbeat IPC: 0.585523 cumulative IPC: 0.573314 (Simulation time: 0 hr 20 min 43 sec) 
Heartbeat CPU 0 instructions: 90000003 cycles: 83127734 heartbeat IPC: 0.600331 cumulative IPC: 0.579838 (Simulation time: 0 hr 23 min 21 sec) 
Heartbeat CPU 0 instructions: 100000001 cycles: 100742866 heartbeat IPC: 0.567694 cumulative IPC: 0.577367 (Simulation time: 0 hr 26 min 35 sec) 
Finished CPU 0 instructions: 50000003 cycles: 86599955 cumulative IPC: 0.577368 (Simulation time: 0 hr 26 min 35 sec) 

ChampSim completed all CPUs

Region of Interest Statistics

CPU 0 cumulative IPC: 0.577368 instructions: 50000003 cycles: 86599955

CPU 0 Average Load ROB stall cycles: 2.33231e+07
CPU 0 Fraction of times ROB stalled by Loads: 42.354
CPU 0 Percentage of Load stall cycles in Total stall cycles: 2.56663e+08
Issued all: 28137242
Issued LT all: 22272924
rob_not_full_when_issued_lt_all: 21226394
Issued LT one: 17339310
rob_not_full_when_issued_lt_one: 16413350
FVP critical_dynamic_instances_0: 3534033
FVP unique_critical_ips_0: 28053
 Total stall cycles: 70946194
 Total load stall cycles: 182092841441654
Unique Load IPs: 67351
CPU 0 NUM of IPS identified critical: 0
CPU 0 Num of Load IPs stalling ROB: 0
Threshold modification factor: 0
Trouble in retire width: -nan
MaC = Marked as critical.
lt_50_percent_before_Mac: 0
gt_90_percent_before_Mac: 0
gt_75_percent_before_Mac: 0
gt_50_percent_before_Mac: 0
stall_proportion_bin_same_before_after: 0
stall_proportion_bin_lower_before_after: 0
stall_proportion_bin_upper_before_after: 0
average_stall_proportion_before: -nan
average_stall_proportion_after: -nan
Critical IP stalls, total frequency: 0
Non-critical IP stalls, total frequency: 0
Total Freq all stalling IPs: 0
Critical_IP_Detector_Accuracy_70: 3.56468e-05
Critical_IP_Detector_Accuracy_80: 3.56468e-05
Critical_IP_Detector_Accuracy_90: 3.56468e-05
Critical_IP_Detector_Coverage_70: 1
Critical_IP_Detector_Coverage_80: 1
Critical_IP_Detector_Coverage_90: 1
stat_90_percent_critical_ip_stalls_freq: 37124
stat_90_percent_non_critical_ip_stalls_freq: 18446744073709514492
AVERAGE_ROB_Occupancy_90_Percent_Critical_IP_Stalls: 19.2305
AVERAGE_ROB_Occupancy_90_Percent_Non_Critical_IP_Stalls: 1.04104e-11
Critical_IP_ROB_Stalls_Bucket_0: 0
Non-critical_IP_ROB_Stalls_Bucket_0: 1923743
Critical_IP_ROB_Stalls_Bucket_1: 0
Non-critical_IP_ROB_Stalls_Bucket_1: 877289
Critical_IP_ROB_Stalls_Bucket_2: 0
Non-critical_IP_ROB_Stalls_Bucket_2: 312422
Critical_IP_ROB_Stalls_Bucket_3: 0
Non-critical_IP_ROB_Stalls_Bucket_3: 92127
Critical_IP_ROB_Stalls_Bucket_4: 0
Non-critical_IP_ROB_Stalls_Bucket_4: 38150
Critical_IP_ROB_Stalls_Bucket_5: 0
Non-critical_IP_ROB_Stalls_Bucket_5: 20169
Critical_IP_ROB_Stalls_Bucket_6: 0
Non-critical_IP_ROB_Stalls_Bucket_6: 42841
0 => IPs accounting for >50 percent of stalls, 1 => 55, 2 => 60, 3 => 65 and so on till 90.
percent50: inf num IPs:  1
percent55: inf num IPs: 1
percent60: inf num IPs: 1
percent65: inf num IPs: 1
percent70: inf num IPs: 1
percent75: inf num IPs: 1
percent80: inf num IPs: 1
percent85: inf num IPs: 1
percent90: inf num IPs: 1
Critical_ROB_Stalls_Percent_0_Bucket_0: 37060
Non-critical_ROB_Stalls_Percent_0_Bucket_0: 1886683
Critical_ROB_Stalls_Percent_0_Bucket_1: 47
Non-critical_ROB_Stalls_Percent_0_Bucket_1: 877242
Critical_ROB_Stalls_Percent_0_Bucket_2: 11
Non-critical_ROB_Stalls_Percent_0_Bucket_2: 312411
Critical_ROB_Stalls_Percent_0_Bucket_3: 4
Non-critical_ROB_Stalls_Percent_0_Bucket_3: 92123
Critical_ROB_Stalls_Percent_0_Bucket_4: 2
Non-critical_ROB_Stalls_Percent_0_Bucket_4: 38148
Critical_ROB_Stalls_Percent_0_Bucket_5: 0
Non-critical_ROB_Stalls_Percent_0_Bucket_5: 20169
Critical_ROB_Stalls_Percent_0_Bucket_6: 0
Non-critical_ROB_Stalls_Percent_0_Bucket_6: 42841
Critical_ROB_Stalls_Percent_1_Bucket_0: 37060
Non-critical_ROB_Stalls_Percent_1_Bucket_0: 1886683
Critical_ROB_Stalls_Percent_1_Bucket_1: 47
Non-critical_ROB_Stalls_Percent_1_Bucket_1: 877242
Critical_ROB_Stalls_Percent_1_Bucket_2: 11
Non-critical_ROB_Stalls_Percent_1_Bucket_2: 312411
Critical_ROB_Stalls_Percent_1_Bucket_3: 4
Non-critical_ROB_Stalls_Percent_1_Bucket_3: 92123
Critical_ROB_Stalls_Percent_1_Bucket_4: 2
Non-critical_ROB_Stalls_Percent_1_Bucket_4: 38148
Critical_ROB_Stalls_Percent_1_Bucket_5: 0
Non-critical_ROB_Stalls_Percent_1_Bucket_5: 20169
Critical_ROB_Stalls_Percent_1_Bucket_6: 0
Non-critical_ROB_Stalls_Percent_1_Bucket_6: 42841
Critical_ROB_Stalls_Percent_2_Bucket_0: 37060
Non-critical_ROB_Stalls_Percent_2_Bucket_0: 1886683
Critical_ROB_Stalls_Percent_2_Bucket_1: 47
Non-critical_ROB_Stalls_Percent_2_Bucket_1: 877242
Critical_ROB_Stalls_Percent_2_Bucket_2: 11
Non-critical_ROB_Stalls_Percent_2_Bucket_2: 312411
Critical_ROB_Stalls_Percent_2_Bucket_3: 4
Non-critical_ROB_Stalls_Percent_2_Bucket_3: 92123
Critical_ROB_Stalls_Percent_2_Bucket_4: 2
Non-critical_ROB_Stalls_Percent_2_Bucket_4: 38148
Critical_ROB_Stalls_Percent_2_Bucket_5: 0
Non-critical_ROB_Stalls_Percent_2_Bucket_5: 20169
Critical_ROB_Stalls_Percent_2_Bucket_6: 0
Non-critical_ROB_Stalls_Percent_2_Bucket_6: 42841
Critical_ROB_Stalls_Percent_3_Bucket_0: 37060
Non-critical_ROB_Stalls_Percent_3_Bucket_0: 1886683
Critical_ROB_Stalls_Percent_3_Bucket_1: 47
Non-critical_ROB_Stalls_Percent_3_Bucket_1: 877242
Critical_ROB_Stalls_Percent_3_Bucket_2: 11
Non-critical_ROB_Stalls_Percent_3_Bucket_2: 312411
Critical_ROB_Stalls_Percent_3_Bucket_3: 4
Non-critical_ROB_Stalls_Percent_3_Bucket_3: 92123
Critical_ROB_Stalls_Percent_3_Bucket_4: 2
Non-critical_ROB_Stalls_Percent_3_Bucket_4: 38148
Critical_ROB_Stalls_Percent_3_Bucket_5: 0
Non-critical_ROB_Stalls_Percent_3_Bucket_5: 20169
Critical_ROB_Stalls_Percent_3_Bucket_6: 0
Non-critical_ROB_Stalls_Percent_3_Bucket_6: 42841
Critical_ROB_Stalls_Percent_4_Bucket_0: 37060
Non-critical_ROB_Stalls_Percent_4_Bucket_0: 1886683
Critical_ROB_Stalls_Percent_4_Bucket_1: 47
Non-critical_ROB_Stalls_Percent_4_Bucket_1: 877242
Critical_ROB_Stalls_Percent_4_Bucket_2: 11
Non-critical_ROB_Stalls_Percent_4_Bucket_2: 312411
Critical_ROB_Stalls_Percent_4_Bucket_3: 4
Non-critical_ROB_Stalls_Percent_4_Bucket_3: 92123
Critical_ROB_Stalls_Percent_4_Bucket_4: 2
Non-critical_ROB_Stalls_Percent_4_Bucket_4: 38148
Critical_ROB_Stalls_Percent_4_Bucket_5: 0
Non-critical_ROB_Stalls_Percent_4_Bucket_5: 20169
Critical_ROB_Stalls_Percent_4_Bucket_6: 0
Non-critical_ROB_Stalls_Percent_4_Bucket_6: 42841
Critical_ROB_Stalls_Percent_5_Bucket_0: 37060
Non-critical_ROB_Stalls_Percent_5_Bucket_0: 1886683
Critical_ROB_Stalls_Percent_5_Bucket_1: 47
Non-critical_ROB_Stalls_Percent_5_Bucket_1: 877242
Critical_ROB_Stalls_Percent_5_Bucket_2: 11
Non-critical_ROB_Stalls_Percent_5_Bucket_2: 312411
Critical_ROB_Stalls_Percent_5_Bucket_3: 4
Non-critical_ROB_Stalls_Percent_5_Bucket_3: 92123
Critical_ROB_Stalls_Percent_5_Bucket_4: 2
Non-critical_ROB_Stalls_Percent_5_Bucket_4: 38148
Critical_ROB_Stalls_Percent_5_Bucket_5: 0
Non-critical_ROB_Stalls_Percent_5_Bucket_5: 20169
Critical_ROB_Stalls_Percent_5_Bucket_6: 0
Non-critical_ROB_Stalls_Percent_5_Bucket_6: 42841
Critical_ROB_Stalls_Percent_6_Bucket_0: 37060
Non-critical_ROB_Stalls_Percent_6_Bucket_0: 1886683
Critical_ROB_Stalls_Percent_6_Bucket_1: 47
Non-critical_ROB_Stalls_Percent_6_Bucket_1: 877242
Critical_ROB_Stalls_Percent_6_Bucket_2: 11
Non-critical_ROB_Stalls_Percent_6_Bucket_2: 312411
Critical_ROB_Stalls_Percent_6_Bucket_3: 4
Non-critical_ROB_Stalls_Percent_6_Bucket_3: 92123
Critical_ROB_Stalls_Percent_6_Bucket_4: 2
Non-critical_ROB_Stalls_Percent_6_Bucket_4: 38148
Critical_ROB_Stalls_Percent_6_Bucket_5: 0
Non-critical_ROB_Stalls_Percent_6_Bucket_5: 20169
Critical_ROB_Stalls_Percent_6_Bucket_6: 0
Non-critical_ROB_Stalls_Percent_6_Bucket_6: 42841
Critical_ROB_Stalls_Percent_7_Bucket_0: 37060
Non-critical_ROB_Stalls_Percent_7_Bucket_0: 1886683
Critical_ROB_Stalls_Percent_7_Bucket_1: 47
Non-critical_ROB_Stalls_Percent_7_Bucket_1: 877242
Critical_ROB_Stalls_Percent_7_Bucket_2: 11
Non-critical_ROB_Stalls_Percent_7_Bucket_2: 312411
Critical_ROB_Stalls_Percent_7_Bucket_3: 4
Non-critical_ROB_Stalls_Percent_7_Bucket_3: 92123
Critical_ROB_Stalls_Percent_7_Bucket_4: 2
Non-critical_ROB_Stalls_Percent_7_Bucket_4: 38148
Critical_ROB_Stalls_Percent_7_Bucket_5: 0
Non-critical_ROB_Stalls_Percent_7_Bucket_5: 20169
Critical_ROB_Stalls_Percent_7_Bucket_6: 0
Non-critical_ROB_Stalls_Percent_7_Bucket_6: 42841
Critical_ROB_Stalls_Percent_8_Bucket_0: 37060
Non-critical_ROB_Stalls_Percent_8_Bucket_0: 1886683
Critical_ROB_Stalls_Percent_8_Bucket_1: 47
Non-critical_ROB_Stalls_Percent_8_Bucket_1: 877242
Critical_ROB_Stalls_Percent_8_Bucket_2: 11
Non-critical_ROB_Stalls_Percent_8_Bucket_2: 312411
Critical_ROB_Stalls_Percent_8_Bucket_3: 4
Non-critical_ROB_Stalls_Percent_8_Bucket_3: 92123
Critical_ROB_Stalls_Percent_8_Bucket_4: 2
Non-critical_ROB_Stalls_Percent_8_Bucket_4: 38148
Critical_ROB_Stalls_Percent_8_Bucket_5: 0
Non-critical_ROB_Stalls_Percent_8_Bucket_5: 20169
Critical_ROB_Stalls_Percent_8_Bucket_6: 0
Non-critical_ROB_Stalls_Percent_8_Bucket_6: 42841
Average ROB occupancy Load Stall Begin: 48.6568
Average ROB occupancy Load Stall End: 58.2904
Min ROB occupancy Load Stall Begin: 1
Max ROB occupancy Load Stall Begin: 352
Min ROB occupancy Load Stall End: 1
Max ROB occupancy Load Stall End: 352
Average ROB occupancy Critical Load Stall Begin: -nan
Average ROB occupancy Critical Load Stall End: -nan
Min ROB occupancy Critical Load Stall Begin: 400
Max ROB occupancy Critical Load Stall Begin: 0
Min ROB occupancy Critical Load Stall End: 400
Max ROB occupancy Critical Load Stall End: 0
 ROB Load Stall Begin Bucket Count 0: 2240137
 ROB Load Stall End Bucket Count 0: 1923743
 ROB Critical Load Stall Begin Bucket Count 0: 0
 ROB Critical Load Stall End Bucket Count 0: 0
 ROB Load Stall Begin Bucket Count 1: 675743
 ROB Load Stall End Bucket Count 1: 877289
 ROB Critical Load Stall Begin Bucket Count 1: 0
 ROB Critical Load Stall End Bucket Count 1: 0
 ROB Load Stall Begin Bucket Count 2: 236578
 ROB Load Stall End Bucket Count 2: 312422
 ROB Critical Load Stall Begin Bucket Count 2: 0
 ROB Critical Load Stall End Bucket Count 2: 0
 ROB Load Stall Begin Bucket Count 3: 67719
 ROB Load Stall End Bucket Count 3: 92127
 ROB Critical Load Stall Begin Bucket Count 3: 0
 ROB Critical Load Stall End Bucket Count 3: 0
 ROB Load Stall Begin Bucket Count 4: 30608
 ROB Load Stall End Bucket Count 4: 38150
 ROB Critical Load Stall Begin Bucket Count 4: 0
 ROB Critical Load Stall End Bucket Count 4: 0
 ROB Load Stall Begin Bucket Count 5: 17456
 ROB Load Stall End Bucket Count 5: 20169
 ROB Critical Load Stall Begin Bucket Count 5: 0
 ROB Critical Load Stall End Bucket Count 5: 0
 ROB Load Stall Begin Bucket Count 6: 38500
 ROB Load Stall End Bucket Count 6: 42841
 ROB Critical Load Stall Begin Bucket Count 6: 0
 ROB Critical Load Stall End Bucket Count 6: 0
PIST Tag Read Accesses: 0
PIST Read Accesses: 0
PIST Tag Write Accesses: 0
PIST Write Accesses: 0
Criticality detector called times: 0
Max global_stall_cycles_count: 0
Threshold Modified: 0 times, factor: 0
ITLB TOTAL     ACCESS:    9184511  HIT:    9024736  MISS:     159775  HIT %:    98.2604  MISS %:    1.73961   MPKI: 3.1955
ITLB LOAD TRANSLATION ACCESS:    8302872  HIT:    8234889  MISS:      67983  HIT %:    99.1812  MISS %:   0.818789   MPKI: 1.35966
ITLB TRANSLATION FROM L1D PREFETCHER ACCESS:     881639  HIT:     789847  MISS:      91792  HIT %:    89.5885  MISS %:    10.4115   MPKI: 1.83584
ITLB PREFETCH  REQUESTED:          0  ISSUED:          0  USEFUL:      75314  USELESS:      16476
ITLB USEFUL LOAD PREFETCHES:      75314 PREFETCH ISSUED TO LOWER LEVEL:          0  ACCURACY: inf
ITLB TIMELY PREFETCHES:      75314 LATE PREFETCHES: 428 DROPPED PREFETCHES: 2471
ITLB PREFETCHES SAME FILL-ORIGIN LEVEL: 0 DIFFERENT FILL-ORIGIN LEVEL: 0
ITLB AVERAGE MISS LATENCY: 167395 cycles
ITLB RQ	ACCESS:   12098284	FORWARD:          0	MERGED:    2887125	TO_CACHE:    9211159

DTLB TOTAL     ACCESS:   10596575  HIT:   10163857  MISS:     432718  HIT %:    95.9164  MISS %:    4.08356   MPKI: 8.65436
DTLB LOAD TRANSLATION ACCESS:   10596575  HIT:   10163857  MISS:     432718  HIT %:    95.9164  MISS %:    4.08356   MPKI: 8.65436
DTLB PREFETCH  REQUESTED:          0  ISSUED:          0  USEFUL:          0  USELESS:          0
DTLB USEFUL LOAD PREFETCHES:          0 PREFETCH ISSUED TO LOWER LEVEL:          0  ACCURACY: -nan
DTLB TIMELY PREFETCHES:          0 LATE PREFETCHES: 0 DROPPED PREFETCHES: 0
DTLB PREFETCHES SAME FILL-ORIGIN LEVEL: 0 DIFFERENT FILL-ORIGIN LEVEL: 0
DTLB AVERAGE MISS LATENCY: 16.4728 cycles
DTLB RQ	ACCESS:   13135071	FORWARD:          0	MERGED:    2509772	TO_CACHE:   10625299

STLB TOTAL     ACCESS:     592491  HIT:     510462  MISS:      82029  HIT %:    86.1552  MISS %:    13.8448   MPKI: 1.64058
STLB LOAD TRANSLATION ACCESS:     500273  HIT:     431691  MISS:      68582  HIT %:    86.2911  MISS %:    13.7089   MPKI: 1.37164
STLB TRANSLATION FROM L1D PREFETCHER ACCESS:      92218  HIT:      78771  MISS:      13447  HIT %:    85.4182  MISS %:    14.5818   MPKI: 0.26894
STLB PREFETCH  REQUESTED:          0  ISSUED:          0  USEFUL:       6919  USELESS:       6473
STLB USEFUL LOAD PREFETCHES:       6919 PREFETCH ISSUED TO LOWER LEVEL:          0  ACCURACY: inf
STLB TIMELY PREFETCHES:       6919 LATE PREFETCHES: 2 DROPPED PREFETCHES: 2471
STLB PREFETCHES SAME FILL-ORIGIN LEVEL: 0 DIFFERENT FILL-ORIGIN LEVEL: 0
STLB AVERAGE MISS LATENCY: 56.1424 cycles
STLB RQ	ACCESS:     594965	FORWARD:          0	MERGED:          0	TO_CACHE:     594965

STLB Hit, L1D data hit: 0
STLB Hit, L2C data hit: 0
STLB Hit, LLC data hit: 0
STLB Hit, LLC data miss: 0
STLB STLB hints to L2: 0
L1D TOTAL     ACCESS:   12896216  HIT:   12168168  MISS:     728048  HIT %:    94.3546  MISS %:    5.64544   MPKI: 14.561
L1D LOAD      ACCESS:    8347425  HIT:    7746866  MISS:     600559  HIT %:    92.8055  MISS %:    7.19454   MPKI: 12.0112
L1D RFO       ACCESS:    4548791  HIT:    4421302  MISS:     127489  HIT %:    97.1973  MISS %:     2.8027   MPKI: 2.54978
L1D PREFETCH  REQUESTED:          0  ISSUED:          0  USEFUL:          0  USELESS:          0
L1D USEFUL LOAD PREFETCHES:          0 PREFETCH ISSUED TO LOWER LEVEL:          0  ACCURACY: -nan
L1D TIMELY PREFETCHES:          0 LATE PREFETCHES: 0 DROPPED PREFETCHES: 0
L1D PREFETCHES SAME FILL-ORIGIN LEVEL: 0 DIFFERENT FILL-ORIGIN LEVEL: 0
L1D AVERAGE MISS LATENCY: 58.6474 cycles
L1D RQ	ACCESS:   12667124	FORWARD:          0	MERGED:    4173023	TO_CACHE:    8408169
L1D WQ	ACCESS:    4823332	FORWARD:      85932	MERGED:      96430	TO_CACHE:    4726902

L1D UNIQUE REGIONS ACCESSED: 0
L1D REGIONS CONFLICTS: 0
L1D Cross Page Prefetch Requests: 0
L1D Same Page Prefetch Requests: 0
L1D ROI Sum of L1D PQ occupancy: 0
L1D PREFETCHES PUSHED FROM L2C: 0
L1I TOTAL     ACCESS:   11972611  HIT:   10598342  MISS:    1374269  HIT %:    88.5216  MISS %:    11.4784   MPKI: 27.4854
L1I LOAD      ACCESS:    9937063  HIT:    9689211  MISS:     247852  HIT %:    97.5058  MISS %:    2.49422   MPKI: 4.95704
L1I PREFETCH  ACCESS:    2035548  HIT:     909131  MISS:    1126417  HIT %:    44.6627  MISS %:    55.3373   MPKI: 22.5283
L1I PREFETCH  REQUESTED:    2240918  ISSUED:    2235972  USEFUL:     726176  USELESS:     400177
L1I USEFUL LOAD PREFETCHES:     726176 PREFETCH ISSUED TO LOWER LEVEL:    1153379  ACCURACY: 62.9607
L1I TIMELY PREFETCHES:     726176 LATE PREFETCHES: 26962 DROPPED PREFETCHES: 7162
L1I PREFETCHES SAME FILL-ORIGIN LEVEL: 1153379 DIFFERENT FILL-ORIGIN LEVEL: 0
L1I AVERAGE MISS LATENCY: 1.20521e+06 cycles
L1I RQ	ACCESS:   14280681	FORWARD:          0	MERGED:    4320449	TO_CACHE:    9960232
L1I PQ	ACCESS:    2235972	FORWARD:          0	MERGED:      97920	TO_CACHE:    2138052

BTB TOTAL     ACCESS:    6374145  HIT:    5543345  MISS:     830800  HIT %:    86.9661  MISS %:    13.0339   MPKI: 16.616
BTB BRANCH_DIRECT_JUMP	ACCESS:     497927  HIT:     456451  MISS:      41476
BTB BRANCH_INDIRECT	ACCESS:     130586  HIT:     102079  MISS:      28507
BTB BRANCH_CONDITIONAL	ACCESS:    3697298  HIT:    3536491  MISS:     160807
BTB BRANCH_DIRECT_CALL	ACCESS:     625806  HIT:     549571  MISS:      76235
BTB BRANCH_INDIRECT_CALL	ACCESS:     389785  HIT:     241920  MISS:     147865
BTB BRANCH_RETURN	ACCESS:    1032743  HIT:     656833  MISS:     375910
BTB BRANCH_OTHER ACCESS:          0  HIT:          0  MISS:          0

L2C TOTAL     ACCESS:    2609965  HIT:    1690788  MISS:     919177  HIT %:     64.782  MISS %:     35.218   MPKI: 18.3835
L2C LOAD      ACCESS:     821428  HIT:     460615  MISS:     360813  HIT %:    56.0749  MISS %:    43.9251   MPKI: 7.21626
L2C DATA LOAD MPKI: 5.45054
L2C INSTRUCTION LOAD MPKI: 1.76572
L2C RFO       ACCESS:     127477  HIT:      46890  MISS:      80587  HIT %:    36.7831  MISS %:    63.2169   MPKI: 1.61174
L2C PREFETCH  ACCESS:    1287754  HIT:     866337  MISS:     421417  HIT %:     67.275  MISS %:     32.725   MPKI: 8.42834
L2C DATA PREFETCH MPKI: 0.76566
L2C INSTRUCTION PREFETCH MPKI: 7.66268
L2C WRITEBACK ACCESS:     266826  HIT:     252564  MISS:      14262  HIT %:    94.6549  MISS %:    5.34506   MPKI: 0.28524
L2C LOAD TRANSLATION ACCESS:      86992  HIT:      50548  MISS:      36444  HIT %:    58.1065  MISS %:    41.8935   MPKI: 0.72888
L2C TRANSLATION FROM L1D PREFETCHER ACCESS:      19488  HIT:      13834  MISS:       5654  HIT %:    70.9873  MISS %:    29.0127   MPKI: 0.11308
L2C PREFETCH  REQUESTED:     155007  ISSUED:     155002  USEFUL:      32087  USELESS:     392916
L2C USEFUL LOAD PREFETCHES:      32087 PREFETCH ISSUED TO LOWER LEVEL:     437031  ACCURACY: 7.34204
L2C TIMELY PREFETCHES:      32087 LATE PREFETCHES: 3135 DROPPED PREFETCHES: 0
L2C PREFETCHES SAME FILL-ORIGIN LEVEL: 41416 DIFFERENT FILL-ORIGIN LEVEL: 12479
L2C AVERAGE MISS LATENCY: 65.8659 cycles
L2C RQ	ACCESS:    1055419	FORWARD:          0	MERGED:          0	TO_CACHE:    1055386
L2C WQ	ACCESS:     266826	FORWARD:         33	MERGED:          0	TO_CACHE:     266826
L2C PQ	ACCESS:    1308381	FORWARD:          0	MERGED:        187	TO_CACHE:    1308194

L2C Instructions Evicting Data 203402
L2C Translations Evicting Data 18149
L2C Data Evicting Data 180351
L2C Instructions Evicting Instructions 246541
L2C Translations Evicting Instructions 22286
L2C Data Evicting Instructions 193071
L2C Instructions Evicting Translations 21477
L2C Translations Evicting Translations 1663
L2C Data Evicting Translations 17975
L2C Dense regions hint from L2: 0
PSCL5 TOTAL     ACCESS:      84501  HIT:      84501  MISS:          0  HIT %:        100  MISS %:          0   MPKI: 0
PSCL5 LOAD TRANSLATION ACCESS:      68581  HIT:      68581  MISS:          0  HIT %:        100  MISS %:          0   MPKI: 0
PSCL5 TRANSLATION FROM L1D PREFETCHER ACCESS:      15920  HIT:      15920  MISS:          0  HIT %:        100  MISS %:          0   MPKI: 0
PSCL5 PREFETCH  REQUESTED:          0  ISSUED:          0  USEFUL:          0  USELESS:          0
PSCL5 USEFUL LOAD PREFETCHES:          0 PREFETCH ISSUED TO LOWER LEVEL:          0  ACCURACY: -nan
PSCL5 TIMELY PREFETCHES:          0 LATE PREFETCHES: 0 DROPPED PREFETCHES: 0
PSCL5 PREFETCHES SAME FILL-ORIGIN LEVEL: 0 DIFFERENT FILL-ORIGIN LEVEL: 0

PSCL4 TOTAL     ACCESS:      82074  HIT:      81876  MISS:        198  HIT %:    99.7588  MISS %:   0.241246   MPKI: 0.00396
PSCL4 LOAD TRANSLATION ACCESS:      67201  HIT:      67003  MISS:        198  HIT %:    99.7054  MISS %:   0.294638   MPKI: 0.00396
PSCL4 TRANSLATION FROM L1D PREFETCHER ACCESS:      14873  HIT:      14873  MISS:          0  HIT %:        100  MISS %:          0   MPKI: 0
PSCL4 PREFETCH  REQUESTED:          0  ISSUED:          0  USEFUL:          0  USELESS:          0
PSCL4 USEFUL LOAD PREFETCHES:          0 PREFETCH ISSUED TO LOWER LEVEL:          0  ACCURACY: -nan
PSCL4 TIMELY PREFETCHES:          0 LATE PREFETCHES: 0 DROPPED PREFETCHES: 0
PSCL4 PREFETCHES SAME FILL-ORIGIN LEVEL: 0 DIFFERENT FILL-ORIGIN LEVEL: 0

PSCL3 TOTAL     ACCESS:      83381  HIT:      82877  MISS:        504  HIT %:    99.3955  MISS %:   0.604454   MPKI: 0.01008
PSCL3 LOAD TRANSLATION ACCESS:      68233  HIT:      67729  MISS:        504  HIT %:    99.2614  MISS %:   0.738646   MPKI: 0.01008
PSCL3 TRANSLATION FROM L1D PREFETCHER ACCESS:      15148  HIT:      15148  MISS:          0  HIT %:        100  MISS %:          0   MPKI: 0
PSCL3 PREFETCH  REQUESTED:          0  ISSUED:          0  USEFUL:          0  USELESS:          0
PSCL3 USEFUL LOAD PREFETCHES:          0 PREFETCH ISSUED TO LOWER LEVEL:          0  ACCURACY: -nan
PSCL3 TIMELY PREFETCHES:          0 LATE PREFETCHES: 0 DROPPED PREFETCHES: 0
PSCL3 PREFETCHES SAME FILL-ORIGIN LEVEL: 0 DIFFERENT FILL-ORIGIN LEVEL: 0

PSCL2 TOTAL     ACCESS:      83650  HIT:      63704  MISS:      19946  HIT %:    76.1554  MISS %:    23.8446   MPKI: 0.39892
PSCL2 LOAD TRANSLATION ACCESS:      70670  HIT:      50724  MISS:      19946  HIT %:    71.7759  MISS %:    28.2241   MPKI: 0.39892
PSCL2 TRANSLATION FROM L1D PREFETCHER ACCESS:      12980  HIT:      12980  MISS:          0  HIT %:        100  MISS %:          0   MPKI: 0
PSCL2 PREFETCH  REQUESTED:          0  ISSUED:          0  USEFUL:          0  USELESS:          0
PSCL2 USEFUL LOAD PREFETCHES:          0 PREFETCH ISSUED TO LOWER LEVEL:          0  ACCURACY: -nan
PSCL2 TIMELY PREFETCHES:          0 LATE PREFETCHES: 0 DROPPED PREFETCHES: 0
PSCL2 PREFETCHES SAME FILL-ORIGIN LEVEL: 0 DIFFERENT FILL-ORIGIN LEVEL: 0

LLC TOTAL     ACCESS:    1061324  HIT:     859834  MISS:     201490  HIT %:    81.0152  MISS %:    18.9848   MPKI: 4.0298
LLC LOAD      ACCESS:     357681  HIT:     280098  MISS:      77583  HIT %:    78.3094  MISS %:    21.6906   MPKI: 1.55166
LLC RFO       ACCESS:      80582  HIT:      29636  MISS:      50946  HIT %:    36.7774  MISS %:    63.2226   MPKI: 1.01892
LLC PREFETCH  ACCESS:     436779  HIT:     374077  MISS:      62702  HIT %:    85.6445  MISS %:    14.3555   MPKI: 1.25404
LLC WRITEBACK ACCESS:     144184  HIT:     138373  MISS:       5811  HIT %:    95.9697  MISS %:    4.03027   MPKI: 0.11622
LLC LOAD TRANSLATION ACCESS:      36444  HIT:      32338  MISS:       4106  HIT %:    88.7334  MISS %:    11.2666   MPKI: 0.08212
LLC TRANSLATION FROM L1D PREFETCHER ACCESS:       5654  HIT:       5312  MISS:        342  HIT %:    93.9512  MISS %:    6.04881   MPKI: 0.00684
LLC PREFETCH  REQUESTED:          0  ISSUED:          0  USEFUL:       6579  USELESS:      53184
LLC USEFUL LOAD PREFETCHES:       6579 PREFETCH ISSUED TO LOWER LEVEL:      62876  ACCURACY: 10.4635
LLC TIMELY PREFETCHES:       6579 LATE PREFETCHES: 174 DROPPED PREFETCHES: 0
LLC PREFETCHES SAME FILL-ORIGIN LEVEL: 5276 DIFFERENT FILL-ORIGIN LEVEL: 0
LLC AVERAGE MISS LATENCY: 169.815 cycles
LLC RQ	ACCESS:     480363	FORWARD:          0	MERGED:          0	TO_CACHE:     480361
LLC WQ	ACCESS:     144184	FORWARD:          2	MERGED:          0	TO_CACHE:     144184
LLC PQ	ACCESS:     437031	FORWARD:          0	MERGED:         17	TO_CACHE:     437014

LLC Dense regions hint to LLC: 0

RAW hits: 1023889
Loads Generated: 13691013
Loads sent to L1D: 12667124
Stores Generated: 4823327
Stores sent to L1D: 4823332
Major fault: 0 Minor fault: 8067
Allocated PAGES: 8067
I-Shadow cache 408 bytes
Touched + WorthPF tables 6144 bytes 
MMA filter 174 bytes 
FNL filter 272 bytes 
TOTAL PREFETCHER STORAGE SIZE: 25174 bytes
CPU 0 L1I next line prefetcher final stats
------------------
Depth Distribution
------------------
depth 0: 71193
depth 1: 111470
depth 2: 16106
depth 3: 3098
depth 4: 433
depth 5: 120
depth 6: 113
depth 7: 53
depth 8: 0
depth 9: 0
depth 10: 0
depth 11: 0
depth 12: 0
depth 13: 0
depth 14: 0
depth 15: 0
depth 16: 0
depth 17: 0
depth 18: 0
depth 19: 0
depth 20: 0
depth 21: 0
depth 22: 0
depth 23: 0
depth 24: 0
depth 25: 0
depth 26: 0
depth 27: 0
depth 28: 0
depth 29: 0
Total: 202586
------------------
ST read accesses: 125106
ST write accesses: 55462
PT read accesses: 2072167
PT write accesses: 154240
FILTER read accesses: 1544768
FILTER write accesses: 2120581
GHR read accesses: 488064
GHR write accesses: 6378
PERC read accesses: 12764817
PERC write accesses: 1631463
GHR counter read accesses: 361136
GHR counter write accesses: 389214
GHR ip read accesses: 1221744
GHR ip write accesses: 722272
ST tag read accesses: 6202455
ST tag write accesses: 1250888

DRAM Statistics
 CHANNEL 0
 RQ ROW_BUFFER_HIT:      40077  ROW_BUFFER_MISS:     155597
 DBUS_CONGESTED:        151
 WQ ROW_BUFFER_HIT:      18352  ROW_BUFFER_MISS:      73290  FULL:          0

 AVG_CONGESTED_CYCLE: 4
 All warmup complete: 2
Channel 0 Bank busy for read cycles: 0
Channel 0 Bank busy for write cycles: 0
Channel 0
Rank 0
0banks busy for read cycles: 63695897
0banks busy for write cycles: 31104
1banks busy for read cycles: 9882006
1banks busy for write cycles: 4274034
2banks busy for read cycles: 2843715
2banks busy for write cycles: 1410276
3banks busy for read cycles: 985109
3banks busy for write cycles: 651161
4banks busy for read cycles: 455267
4banks busy for write cycles: 377617
5banks busy for read cycles: 264654
5banks busy for write cycles: 256669
6banks busy for read cycles: 248258
6banks busy for write cycles: 205939
7banks busy for read cycles: 138253
7banks busy for write cycles: 208111
8banks busy for read cycles: 162558
8banks busy for write cycles: 509328

CPU 0 Branch Prediction Accuracy: 95.439% MPKI: 9.02702 Average ROB Occupancy at Mispredict: 41.8033
Branch types
NOT_BRANCH: 40103828 80.2077%
BRANCH_DIRECT_JUMP: 497927 0.995854%
BRANCH_INDIRECT: 130586 0.261172%
BRANCH_CONDITIONAL: 7218977 14.438%
BRANCH_DIRECT_CALL: 625806 1.25161%
BRANCH_INDIRECT_CALL: 389785 0.77957%
BRANCH_RETURN: 1032743 2.06549%
BRANCH_OTHER: 0 0%

DRAM PAGES: 1048576
Allocated PAGES: 8067
