Initialize SIGNATURE TABLE
ST_SET: 1
ST_WAY: 256
ST_TAG_BIT: 16
ST_TAG_MASK: ffff

Initialize PATTERN TABLE
PT_SET: 512
PT_WAY: 4
SIG_DELTA_BIT: 7
C_SIG_BIT: 4
C_DELTA_BIT: 4

Initialize PREFETCH FILTER
FILTER_SET: 1024

Initialize PERCEPTRON
PERC_ENTRIES: 4096
PERC_FEATURES: 9
MANA initialize 
tds: 2 tdm: 4
size MANA SINGLE: 25.5 KB
size MANA NULTIPLE: 9.875 KB
size HOBPT: 0.703125 KB
size SRQ: 0.0644531 KB
size SABs: 0.0402832 KB
size prefetch queue: 0.453125 KB
total: 36.636 KB

*** ChampSim Multicore Out-of-Order Simulator ***

Warmup Instructions: 50000000
Simulation Instructions: 50000000
Number of CPUs: 1
LLC sets: 2048
LLC ways: 16
Off-chip DRAM Size: 4096 MB Channels: 1 Width: 64-bit Data Rate: 6400 MT/s
CPU 0 runs ../IPC-traces//server_015.champsimtrace.xz
.xz
BTB has LRU replacement policy
ITLB has LRU replacement policy
DTLB has LRU replacement policy
STLB has LRU replacement policy
L1I has LRU replacement policy
L1D has LRU replacement policy
Initialize SRRIP state for L2C
Initialize DRRIP state for LLC
Heartbeat CPU 0 instructions: 10000001 cycles: 2838878 heartbeat IPC: 3.52252 cumulative IPC: 3.52252 (Simulation time: 0 hr 4 min 41 sec) 
Heartbeat CPU 0 instructions: 20000001 cycles: 5703599 heartbeat IPC: 3.49074 cumulative IPC: 3.50656 (Simulation time: 0 hr 9 min 5 sec) 
Heartbeat CPU 0 instructions: 30000002 cycles: 8541081 heartbeat IPC: 3.52425 cumulative IPC: 3.51244 (Simulation time: 0 hr 13 min 27 sec) 
Heartbeat CPU 0 instructions: 40000001 cycles: 11375482 heartbeat IPC: 3.52808 cumulative IPC: 3.51633 (Simulation time: 0 hr 17 min 45 sec) 
Heartbeat CPU 0 instructions: 50000003 cycles: 14209660 heartbeat IPC: 3.52836 cumulative IPC: 3.51873 (Simulation time: 0 hr 21 min 7 sec) 

Warmup complete CPU 0 instructions: 50000003 cycles: 14209660 (Simulation time: 0 hr 21 min 7 sec) 

Epoch all ip prefetch: 0, epoch id: 2
Epoch all ip prefetch: 1, epoch id: 3
Epoch all ip prefetch: 0, epoch id: 4
Epoch all ip prefetch: 0, epoch id: 5
Epoch all ip prefetch: 0, epoch id: 6
Epoch all ip prefetch: 0, epoch id: 7
Epoch all ip prefetch: 0, epoch id: 8
Epoch all ip prefetch: 0, epoch id: 9
Epoch all ip prefetch: 0, epoch id: 10
Epoch all ip prefetch: 0, epoch id: 11
Heartbeat CPU 0 instructions: 60000002 cycles: 27792705 heartbeat IPC: 0.736212 cumulative IPC: 0.736212 (Simulation time: 0 hr 24 min 59 sec) 
Epoch all ip prefetch: 0, epoch id: 12
Epoch all ip prefetch: 0, epoch id: 13
Epoch all ip prefetch: 0, epoch id: 14
Epoch all ip prefetch: 0, epoch id: 15
Epoch all ip prefetch: 0, epoch id: 16
Epoch all ip prefetch: 0, epoch id: 17
Epoch all ip prefetch: 0, epoch id: 18
Epoch all ip prefetch: 0, epoch id: 19
Epoch all ip prefetch: 0, epoch id: 20
Epoch all ip prefetch: 0, epoch id: 21
Heartbeat CPU 0 instructions: 70000003 cycles: 41361176 heartbeat IPC: 0.737003 cumulative IPC: 0.736607 (Simulation time: 0 hr 28 min 39 sec) 
Epoch all ip prefetch: 0, epoch id: 22
Epoch all ip prefetch: 0, epoch id: 23
Epoch all ip prefetch: 0, epoch id: 24
Epoch all ip prefetch: 0, epoch id: 25
Epoch all ip prefetch: 0, epoch id: 26
Epoch all ip prefetch: 0, epoch id: 27
Epoch all ip prefetch: 0, epoch id: 28
Epoch all ip prefetch: 0, epoch id: 29
Epoch all ip prefetch: 0, epoch id: 30
Epoch all ip prefetch: 0, epoch id: 31
Heartbeat CPU 0 instructions: 80000000 cycles: 54925276 heartbeat IPC: 0.73724 cumulative IPC: 0.736818 (Simulation time: 0 hr 32 min 20 sec) 
Epoch all ip prefetch: 0, epoch id: 32
Epoch all ip prefetch: 0, epoch id: 33
Epoch all ip prefetch: 0, epoch id: 34
Epoch all ip prefetch: 0, epoch id: 35
Epoch all ip prefetch: 0, epoch id: 36
Epoch all ip prefetch: 0, epoch id: 37
Epoch all ip prefetch: 0, epoch id: 38
Epoch all ip prefetch: 0, epoch id: 39
Epoch all ip prefetch: 0, epoch id: 40
Epoch all ip prefetch: 0, epoch id: 41
Heartbeat CPU 0 instructions: 90000003 cycles: 68495030 heartbeat IPC: 0.736933 cumulative IPC: 0.736847 (Simulation time: 0 hr 35 min 59 sec) 
Epoch all ip prefetch: 0, epoch id: 42
Epoch all ip prefetch: 0, epoch id: 43
Epoch all ip prefetch: 0, epoch id: 44
Epoch all ip prefetch: 0, epoch id: 45
Epoch all ip prefetch: 0, epoch id: 46
Epoch all ip prefetch: 0, epoch id: 47
Epoch all ip prefetch: 0, epoch id: 48
Epoch all ip prefetch: 0, epoch id: 49
Epoch all ip prefetch: 0, epoch id: 50
Epoch all ip prefetch: 0, epoch id: 51
Heartbeat CPU 0 instructions: 100000003 cycles: 82063743 heartbeat IPC: 0.73699 cumulative IPC: 0.736875 (Simulation time: 0 hr 38 min 44 sec) 
Finished CPU 0 instructions: 50000000 cycles: 67854083 cumulative IPC: 0.736875 (Simulation time: 0 hr 38 min 44 sec) 

ChampSim completed all CPUs

Region of Interest Statistics

CPU 0 cumulative IPC: 0.736875 instructions: 50000000 cycles: 67854083

CPU 0 Average Load ROB stall cycles: 2.92418
CPU 0 Fraction of times ROB stalled by Loads: 26.1797
CPU 0 Percentage of Load stall cycles in Total stall cycles: 48.0572
CPU 0 NUM of IPS identified critical: 0

Average ROB occupancy Load Stall Begin: 70.7332
Average ROB occupancy Load Stall End: 79.1331
Min ROB occupancy Load Stall Begin: 1
Max ROB occupancy Load Stall Begin: 351
Min ROB occupancy Load Stall End: 2
Max ROB occupancy Load Stall End: 352
Average ROB occupancy Critical Load Stall Begin: -nan
Average ROB occupancy Critical Load Stall End: -nan
Min ROB occupancy Critical Load Stall Begin: 400
Max ROB occupancy Critical Load Stall Begin: 0
Min ROB occupancy Critical Load Stall End: 400
Max ROB occupancy Critical Load Stall End: 0
 ROB Load Stall Begin Bucket Count 0: 981312
 ROB Load Stall End Bucket Count 0: 804712
 ROB Critical Load Stall Begin Bucket Count 0: 0
 ROB Critical Load Stall End Bucket Count 0: 0
 ROB Load Stall Begin Bucket Count 1: 460483
 ROB Load Stall End Bucket Count 1: 578306
 ROB Critical Load Stall Begin Bucket Count 1: 0
 ROB Critical Load Stall End Bucket Count 1: 0
 ROB Load Stall Begin Bucket Count 2: 207935
 ROB Load Stall End Bucket Count 2: 259317
 ROB Critical Load Stall Begin Bucket Count 2: 0
 ROB Critical Load Stall End Bucket Count 2: 0
 ROB Load Stall Begin Bucket Count 3: 39542
 ROB Load Stall End Bucket Count 3: 46832
 ROB Critical Load Stall Begin Bucket Count 3: 0
 ROB Critical Load Stall End Bucket Count 3: 0
 ROB Load Stall Begin Bucket Count 4: 19015
 ROB Load Stall End Bucket Count 4: 15229
 ROB Critical Load Stall Begin Bucket Count 4: 0
 ROB Critical Load Stall End Bucket Count 4: 0
 ROB Load Stall Begin Bucket Count 5: 23972
 ROB Load Stall End Bucket Count 5: 26832
 ROB Critical Load Stall Begin Bucket Count 5: 0
 ROB Critical Load Stall End Bucket Count 5: 0
 ROB Load Stall Begin Bucket Count 6: 75955
 ROB Load Stall End Bucket Count 6: 76986
 ROB Critical Load Stall Begin Bucket Count 6: 0
 ROB Critical Load Stall End Bucket Count 6: 0
Threshold Modified: 1 times, factor: -1
Sturdy critical IP cache stats: 
 Unused entries: 128
Wobbly critical IP cache stats: 
 Unused entries: 256
ITLB TOTAL     ACCESS:   12733786  HIT:   12329910  MISS:     403876  HIT %:    96.8283  MISS %:    3.17169   MPKI: 8.07752
ITLB LOAD TRANSLATION ACCESS:    8283547  HIT:    8210631  MISS:      72916  HIT %:    99.1197  MISS %:   0.880251   MPKI: 1.45832
ITLB TRANSLATION FROM L1D PREFETCHER ACCESS:    4450239  HIT:    4119279  MISS:     330960  HIT %:    92.5631  MISS %:     7.4369   MPKI: 6.6192
ITLB AVERAGE MISS LATENCY: 7.16354e+06 cycles
ITLB RQ	ACCESS:   22241764	FORWARD:          0	MERGED:    9374884	TO_CACHE:   12866880

DTLB TOTAL     ACCESS:   10940166  HIT:   10738262  MISS:     201904  HIT %:    98.1545  MISS %:    1.84553   MPKI: 4.03808
DTLB LOAD TRANSLATION ACCESS:   10940166  HIT:   10738262  MISS:     201904  HIT %:    98.1545  MISS %:    1.84553   MPKI: 4.03808
DTLB AVERAGE MISS LATENCY: 9.00471 cycles
DTLB RQ	ACCESS:   15857328	FORWARD:          0	MERGED:    4889610	TO_CACHE:   10967718

STLB TOTAL     ACCESS:     605780  HIT:     605775  MISS:          5  HIT %:    99.9992  MISS %: 0.000825382   MPKI: 0.0001
STLB LOAD TRANSLATION ACCESS:     214746  HIT:     214744  MISS:          2  HIT %:    99.9991  MISS %: 0.000931333   MPKI: 4e-05
STLB TRANSLATION FROM L1D PREFETCHER ACCESS:     391034  HIT:     391031  MISS:          3  HIT %:    99.9992  MISS %: 0.000767197   MPKI: 6e-05
STLB AVERAGE MISS LATENCY: 142.2 cycles
STLB RQ	ACCESS:     621594	FORWARD:          0	MERGED:          0	TO_CACHE:     621594

STLB Hit, L1D data hit: 0
STLB Hit, L2C data hit: 0
STLB Hit, LLC data hit: 0
STLB Hit, LLC data miss: 0
STLB STLB hints to L2: 0
L1D TOTAL     ACCESS:   15857147  HIT:   15856741  MISS:        406  HIT %:    99.9974  MISS %: 0.00256036   MPKI: 0.00812
L1D LOAD      ACCESS:    7245654  HIT:    7245307  MISS:        347  HIT %:    99.9952  MISS %: 0.00478908   MPKI: 0.00694
L1D RFO       ACCESS:    8611493  HIT:    8611434  MISS:         59  HIT %:    99.9993  MISS %: 0.000685131   MPKI: 0.00118
L1D AVERAGE MISS LATENCY: 39.4631 cycles
L1D RQ	ACCESS:   11385261	FORWARD:          0	MERGED:    3962912	TO_CACHE:    7245729
L1D WQ	ACCESS:    8732207	FORWARD:     176620	MERGED:     120608	TO_CACHE:    8611599

L1D UNIQUE REGIONS ACCESSED: 0
L1D REGIONS CONFLICTS: 0
L1D Cross Page Prefetch Requests: 0
L1D Same Page Prefetch Requests: 0
L1D ROI Sum of L1D PQ occupancy: 0
L1D PREFETCHES PUSHED FROM L2C: 0
L1I TOTAL     ACCESS:   21729302  HIT:   19763694  MISS:    1965608  HIT %:    90.9541  MISS %:    9.04589   MPKI: 39.3122
L1I LOAD      ACCESS:    9529178  HIT:    9150101  MISS:     379077  HIT %:    96.0219  MISS %:    3.97807   MPKI: 7.58154
L1I PREFETCH  ACCESS:   12200124  HIT:   10613593  MISS:    1586531  HIT %:    86.9958  MISS %:    13.0042   MPKI: 31.7306
L1I PREFETCH  REQUESTED:   14050217  ISSUED:   13520030  USEFUL:    1465750  USELESS:     120772
L1I USEFUL LOAD PREFETCHES:    1465750 PREFETCH ISSUED TO LOWER LEVEL:    1761833  ACCURACY: 83.1946
L1I TIMELY PREFETCHES:    1465750 LATE PREFETCHES: 175296 DROPPED PREFETCHES: 17979
L1I AVERAGE MISS LATENCY: 4.31292e+06 cycles
L1I RQ	ACCESS:   13792532	FORWARD:          0	MERGED:    4195775	TO_CACHE:    9596757
L1I PQ	ACCESS:   13520030	FORWARD:          0	MERGED:     875023	TO_CACHE:   12645007

BTB TOTAL     ACCESS:    5529482  HIT:    5076528  MISS:     452954  HIT %:    91.8084  MISS %:    8.19162   MPKI: 9.05908
BTB BRANCH_DIRECT_JUMP	ACCESS:     436253  HIT:     436132  MISS:        121
BTB BRANCH_INDIRECT	ACCESS:          0  HIT:          0  MISS:          0
BTB BRANCH_CONDITIONAL	ACCESS:    2498616  HIT:    2498126  MISS:        490
BTB BRANCH_DIRECT_CALL	ACCESS:    1173392  HIT:    1173079  MISS:        313
BTB BRANCH_INDIRECT_CALL	ACCESS:     123911  HIT:     109310  MISS:      14601
BTB BRANCH_RETURN	ACCESS:    1297310  HIT:     859881  MISS:     437429
BTB BRANCH_OTHER ACCESS:          0  HIT:          0  MISS:          0

L2C TOTAL     ACCESS:    2815748  HIT:    2814215  MISS:       1533  HIT %:    99.9456  MISS %:  0.0544438   MPKI: 0.03066
L2C LOAD      ACCESS:     204128  HIT:     204013  MISS:        115  HIT %:    99.9437  MISS %:  0.0563372   MPKI: 0.0023
L2C DATA LOAD MPKI: 0.00184
L2C INSTRUCTION LOAD MPKI: 0.00046
L2C RFO       ACCESS:         59  HIT:         48  MISS:         11  HIT %:    81.3559  MISS %:    18.6441   MPKI: 0.00022
L2C PREFETCH  ACCESS:    2595559  HIT:    2594173  MISS:       1386  HIT %:    99.9466  MISS %:  0.0533989   MPKI: 0.02772
L2C DATA PREFETCH MPKI: 0.025
L2C INSTRUCTION PREFETCH MPKI: 0.00272
L2C WRITEBACK ACCESS:        183  HIT:        166  MISS:         17  HIT %:    90.7104  MISS %:    9.28962   MPKI: 0.00034
L2C LOAD TRANSLATION ACCESS:          3  HIT:          1  MISS:          2  HIT %:    33.3333  MISS %:    66.6667   MPKI: 4e-05
L2C TRANSLATION FROM L1D PREFETCHER ACCESS:      15816  HIT:      15814  MISS:          2  HIT %:    99.9874  MISS %:  0.0126454   MPKI: 4e-05
L2C PREFETCH  REQUESTED:    1140600  ISSUED:    1140596  USEFUL:        120  USELESS:        612
L2C USEFUL LOAD PREFETCHES:        120 PREFETCH ISSUED TO LOWER LEVEL:       1424  ACCURACY: 8.42697
L2C TIMELY PREFETCHES:        120 LATE PREFETCHES: 8 DROPPED PREFETCHES: 0
L2C AVERAGE MISS LATENCY: 141.418 cycles
L2C RQ	ACCESS:     220006	FORWARD:          0	MERGED:          0	TO_CACHE:     220006
L2C WQ	ACCESS:        183	FORWARD:          0	MERGED:          0	TO_CACHE:        183
L2C PQ	ACCESS:    2902423	FORWARD:          0	MERGED:     306790	TO_CACHE:    2595633

L2C Instructions Evicting Data141
L2C Translations Evicting Data2
L2C Data Evicting Data1186
L2C Instructions Evicting Instructions15
L2C Translations Evicting Instructions2
L2C Data Evicting Instructions138
L2C Instructions Evicting Translations3
L2C Translations Evicting Translations0
L2C Data Evicting Translations29
L2C Dense regions hint from L2: 0
PSCL5 TOTAL     ACCESS:      15818  HIT:      15818  MISS:          0  HIT %:        100  MISS %:          0   MPKI: 0
PSCL5 LOAD TRANSLATION ACCESS:          2  HIT:          2  MISS:          0  HIT %:        100  MISS %:          0   MPKI: 0
PSCL5 TRANSLATION FROM L1D PREFETCHER ACCESS:      15816  HIT:      15816  MISS:          0  HIT %:        100  MISS %:          0   MPKI: 0

PSCL4 TOTAL     ACCESS:      15818  HIT:      15818  MISS:          0  HIT %:        100  MISS %:          0   MPKI: 0
PSCL4 LOAD TRANSLATION ACCESS:          2  HIT:          2  MISS:          0  HIT %:        100  MISS %:          0   MPKI: 0
PSCL4 TRANSLATION FROM L1D PREFETCHER ACCESS:      15816  HIT:      15816  MISS:          0  HIT %:        100  MISS %:          0   MPKI: 0

PSCL3 TOTAL     ACCESS:      15818  HIT:      15818  MISS:          0  HIT %:        100  MISS %:          0   MPKI: 0
PSCL3 LOAD TRANSLATION ACCESS:          2  HIT:          2  MISS:          0  HIT %:        100  MISS %:          0   MPKI: 0
PSCL3 TRANSLATION FROM L1D PREFETCHER ACCESS:      15816  HIT:      15816  MISS:          0  HIT %:        100  MISS %:          0   MPKI: 0

PSCL2 TOTAL     ACCESS:          5  HIT:          4  MISS:          1  HIT %:         80  MISS %:         20   MPKI: 2e-05
PSCL2 LOAD TRANSLATION ACCESS:          2  HIT:          1  MISS:          1  HIT %:         50  MISS %:         50   MPKI: 2e-05
PSCL2 TRANSLATION FROM L1D PREFETCHER ACCESS:          3  HIT:          3  MISS:          0  HIT %:        100  MISS %:          0   MPKI: 0

LLC TOTAL     ACCESS:       1919  HIT:        997  MISS:        922  HIT %:    51.9541  MISS %:    48.0459   MPKI: 0.01844
LLC LOAD      ACCESS:        107  HIT:         70  MISS:         37  HIT %:    65.4206  MISS %:    34.5794   MPKI: 0.00074
LLC RFO       ACCESS:         11  HIT:          8  MISS:          3  HIT %:    72.7273  MISS %:    27.2727   MPKI: 6e-05
LLC PREFETCH  ACCESS:       1424  HIT:        554  MISS:        870  HIT %:    38.9045  MISS %:    61.0955   MPKI: 0.0174
LLC WRITEBACK ACCESS:        373  HIT:        363  MISS:         10  HIT %:     97.319  MISS %:    2.68097   MPKI: 0.0002
LLC LOAD TRANSLATION ACCESS:          2  HIT:          1  MISS:          1  HIT %:         50  MISS %:         50   MPKI: 2e-05
LLC TRANSLATION FROM L1D PREFETCHER ACCESS:          2  HIT:          1  MISS:          1  HIT %:         50  MISS %:         50   MPKI: 2e-05
LLC AVERAGE MISS LATENCY: 189.89 cycles
LLC RQ	ACCESS:        122	FORWARD:          0	MERGED:          0	TO_CACHE:        122
LLC WQ	ACCESS:        373	FORWARD:          0	MERGED:          0	TO_CACHE:        373
LLC PQ	ACCESS:       1424	FORWARD:          0	MERGED:          0	TO_CACHE:       1424

LLC Dense regions hint to LLC: 0

RAW hits: 1463971
Loads Generated: 12849234
Loads sent to L1D: 11385261
Stores Generated: 8732204
Stores sent to L1D: 8732207
Major fault: 0 Minor fault: 1999
Allocated PAGES: 1999



Printing Logs
statHeadFound: 2241903
statHeadMissing: 1692434
statStreamBufferHit: 12152626
statPrefetchEntryFound: 9973618
statCompactorMatch: 12140187
statStreamTrackerLookup: 16086963
statRecord: 3946776
statGetPointer: 3934337
statEnqueuePrefetch: 25149939
statPrefetchQueueIsFull: 0
StreamBufferHitRate: 0.755433
Regions' size: 2871
next_region_correct: 2763204
next_region_wrong: 1180693
next_region_correct_prediction: 0.700628
statStreamBufferLookups: 160869630
statL1iLookups: 201199512
statCompactorLookups: 257391408
------------------
Depth Distribution
------------------
depth 0: 8535
depth 1: 33119
depth 2: 334273
depth 3: 1585563
depth 4: 1211830
depth 5: 195091
depth 6: 1261
depth 7: 1394
depth 8: 1995
depth 9: 2171
depth 10: 444
depth 11: 1381
depth 12: 401
depth 13: 119
depth 14: 450
depth 15: 176
depth 16: 296
depth 17: 182
depth 18: 154
depth 19: 94
depth 20: 51
depth 21: 23
depth 22: 10
depth 23: 0
depth 24: 0
depth 25: 0
depth 26: 0
depth 27: 0
depth 28: 0
depth 29: 0
Total: 3379013
------------------
ST read accesses: 659896155
ST write accesses: 32388684
PT read accesses: 39069055
PT write accesses: 2385218
FILTER read accesses: 9591502
FILTER write accesses: 1545299
GHR read accesses: 8667546
GHR write accesses: 1237021
PERC read accesses: 270298836
PERC write accesses: 3640373
GHR counter read accesses: 3511656
GHR counter write accesses: 3301074
GHR ip read accesses: 8689386
GHR ip write accesses: 7023312

DRAM Statistics
 CHANNEL 0
 RQ ROW_BUFFER_HIT:        112  ROW_BUFFER_MISS:        800
 DBUS_CONGESTED:          0
 WQ ROW_BUFFER_HIT:         56  ROW_BUFFER_MISS:        521  FULL:          0

 AVG_CONGESTED_CYCLE: -

CPU 0 Branch Prediction Accuracy: 99.9085% MPKI: 0.15428 Average ROB Occupancy at Mispredict: 51.315
Branch types
NOT_BRANCH: 41573094 83.1462%
BRANCH_DIRECT_JUMP: 436253 0.872506%
BRANCH_INDIRECT: 0 0%
BRANCH_CONDITIONAL: 5395886 10.7918%
BRANCH_DIRECT_CALL: 1173392 2.34678%
BRANCH_INDIRECT_CALL: 123911 0.247822%
BRANCH_RETURN: 1297310 2.59462%
BRANCH_OTHER: 0 0%

DRAM PAGES: 1048576
Allocated PAGES: 1999
