
*** ChampSim Multicore Out-of-Order Simulator ***

Warmup Instructions: 50000000
Simulation Instructions: 50000000
Number of CPUs: 1
LLC sets: 2048
LLC ways: 16
Off-chip DRAM Size: 4096 MB Channels: 1 Width: 64-bit Data Rate: 6400 MT/s
CPU 0 runs ../IPC-traces//server_016.champsimtrace.xz
.xz
NUM_OF_IPS_IN_CRITICAL_IP_TRAINING: 64
NUM_OF_CRITICAL_IP_TRAINING_TABLE_WAYS: 2
NUM_OF_CRITICAL_IP_TRAINING_TABLE_SETS: 32
WOBBLY_CRITICAL_IP_CACHE_SETS: 32
WOBBLY_CRITICAL_IP_CACHE_WAYS: 4
BTB has LRU replacement policy
ITLB has LRU replacement policy
DTLB has LRU replacement policy
STLB has LRU replacement policy
CPU 0 L1I next line prefetcher
L1I has LRU replacement policy
IP Table Entries: 64
L1D has LRU replacement policy
Initialize SRRIP state for L2C
Initialize DRRIP state for LLC
Heartbeat CPU 0 instructions: 10000000 cycles: 2877827 heartbeat IPC: 3.47484 cumulative IPC: 3.47484 (Simulation time: 0 hr 3 min 22 sec) 
Heartbeat CPU 0 instructions: 20000000 cycles: 5750648 heartbeat IPC: 3.4809 cumulative IPC: 3.47787 (Simulation time: 0 hr 6 min 7 sec) 
Heartbeat CPU 0 instructions: 30000001 cycles: 8620728 heartbeat IPC: 3.48422 cumulative IPC: 3.47998 (Simulation time: 0 hr 8 min 45 sec) 
Heartbeat CPU 0 instructions: 40000001 cycles: 11774931 heartbeat IPC: 3.17037 cumulative IPC: 3.39705 (Simulation time: 0 hr 10 min 0 sec) 
Heartbeat CPU 0 instructions: 50000002 cycles: 15010395 heartbeat IPC: 3.09075 cumulative IPC: 3.33103 (Simulation time: 0 hr 10 min 49 sec) 

Warmup complete CPU 0 instructions: 50000002 cycles: 15010395 (Simulation time: 0 hr 10 min 49 sec) 

% increase in all ip prefetch 344.006
% increase in all ip prefetch -0.0090097
Heartbeat CPU 0 instructions: 60000001 cycles: 29652464 heartbeat IPC: 0.682964 cumulative IPC: 0.682964 (Simulation time: 0 hr 13 min 20 sec) 
Heartbeat CPU 0 instructions: 70000001 cycles: 45644734 heartbeat IPC: 0.625302 cumulative IPC: 0.652862 (Simulation time: 0 hr 15 min 56 sec) 
Heartbeat CPU 0 instructions: 80000000 cycles: 61806185 heartbeat IPC: 0.618756 cumulative IPC: 0.641083 (Simulation time: 0 hr 18 min 30 sec) 
Heartbeat CPU 0 instructions: 90000000 cycles: 77502978 heartbeat IPC: 0.637073 cumulative IPC: 0.640076 (Simulation time: 0 hr 21 min 4 sec) 
Heartbeat CPU 0 instructions: 100000000 cycles: 93456078 heartbeat IPC: 0.626837 cumulative IPC: 0.637384 (Simulation time: 0 hr 23 min 39 sec) 
Finished CPU 0 instructions: 50000000 cycles: 78445684 cumulative IPC: 0.637384 (Simulation time: 0 hr 23 min 39 sec) 

ChampSim completed all CPUs

Region of Interest Statistics

CPU 0 cumulative IPC: 0.637384 instructions: 50000000 cycles: 78445684

CPU 0 Average Load ROB stall cycles: 2.01833e+07
CPU 0 Fraction of times ROB stalled by Loads: 38.1296
CPU 0 Percentage of Load stall cycles in Total stall cycles: 2.80576e+08
Issued all: 28654916
Issued LT all: 22412359
rob_not_full_when_issued_lt_all: 22102339
Issued LT one: 18231470
rob_not_full_when_issued_lt_one: 17961024
critical_ip_candidate_identification_operations: 6922904
critical_ip_candidate_identification_operation_per_cycle: 0.0882509
 Total stall cycles: 65303882
 Total load stall cycles: 183226807470449
Unique Load IPs: 13820
CPU 0 NUM of IPS identified critical: 18
CPU 0 Num of Load IPs stalling ROB: 12063
Threshold modification factor: -1
Max PIST entries: 64
Min PIST entries: 0
Avg PIST entries: 29.7
Trouble in retire width: 0.878855
MaC = Marked as critical.
lt_50_percent_before_Mac: 18
gt_90_percent_before_Mac: 0
gt_75_percent_before_Mac: 0
gt_50_percent_before_Mac: 0
stall_proportion_bin_same_before_after: 0
stall_proportion_bin_lower_before_after: 0
stall_proportion_bin_upper_before_after: 0
average_stall_proportion_before: 0.0763154
average_stall_proportion_after: 0.0760962
Critical IP stalls, total frequency: 812459
Non-critical IP stalls, total frequency: 2648993
Total Freq all stalling IPs: 3461452
Critical_IP_Detector_Accuracy_70: 0.944444
Critical_IP_Detector_Accuracy_80: 1
Critical_IP_Detector_Accuracy_90: 1
Critical_IP_Detector_Coverage_70: 0.0166667
Critical_IP_Detector_Coverage_80: 0.00984144
Critical_IP_Detector_Coverage_90: 0.00582902
stat_90_percent_critical_ip_stalls_freq: 3115306
stat_90_percent_non_critical_ip_stalls_freq: 346146
AVERAGE_ROB_Occupancy_90_Percent_Critical_IP_Stalls: 44.8735
AVERAGE_ROB_Occupancy_90_Percent_Non_Critical_IP_Stalls: 28.2036
Critical_IP_ROB_Stalls_Bucket_0: 631027
Non-critical_IP_ROB_Stalls_Bucket_0: 1889659
Critical_IP_ROB_Stalls_Bucket_1: 72467
Non-critical_IP_ROB_Stalls_Bucket_1: 531130
Critical_IP_ROB_Stalls_Bucket_2: 70388
Non-critical_IP_ROB_Stalls_Bucket_2: 174081
Critical_IP_ROB_Stalls_Bucket_3: 12507
Non-critical_IP_ROB_Stalls_Bucket_3: 38346
Critical_IP_ROB_Stalls_Bucket_4: 5468
Non-critical_IP_ROB_Stalls_Bucket_4: 11040
Critical_IP_ROB_Stalls_Bucket_5: 5109
Non-critical_IP_ROB_Stalls_Bucket_5: 2596
Critical_IP_ROB_Stalls_Bucket_6: 15493
Non-critical_IP_ROB_Stalls_Bucket_6: 2141
0 => IPs accounting for >50 percent of stalls, 1 => 55, 2 => 60, 3 => 65 and so on till 90.
percent50: 50.0325 num IPs:  165
percent55: 55.0223 num IPs: 285
percent60: 60.0181 num IPs: 463
percent65: 65.0076 num IPs: 710
percent70: 70.0056 num IPs: 1020
percent75: 75.0017 num IPs: 1375
percent80: 80.0067 num IPs: 1829
percent85: 85.0037 num IPs: 2417
percent90: 90.001 num IPs: 3088
Critical_ROB_Stalls_Percent_0_Bucket_0: 1181728
Non-critical_ROB_Stalls_Percent_0_Bucket_0: 1338958
Critical_ROB_Stalls_Percent_0_Bucket_1: 318985
Non-critical_ROB_Stalls_Percent_0_Bucket_1: 284612
Critical_ROB_Stalls_Percent_0_Bucket_2: 165840
Non-critical_ROB_Stalls_Percent_0_Bucket_2: 78629
Critical_ROB_Stalls_Percent_0_Bucket_3: 34744
Non-critical_ROB_Stalls_Percent_0_Bucket_3: 16109
Critical_ROB_Stalls_Percent_0_Bucket_4: 9248
Non-critical_ROB_Stalls_Percent_0_Bucket_4: 7260
Critical_ROB_Stalls_Percent_0_Bucket_5: 5758
Non-critical_ROB_Stalls_Percent_0_Bucket_5: 1947
Critical_ROB_Stalls_Percent_0_Bucket_6: 15549
Non-critical_ROB_Stalls_Percent_0_Bucket_6: 2085
Critical_ROB_Stalls_Percent_1_Bucket_0: 1265921
Non-critical_ROB_Stalls_Percent_1_Bucket_0: 1254765
Critical_ROB_Stalls_Percent_1_Bucket_1: 371304
Non-critical_ROB_Stalls_Percent_1_Bucket_1: 232293
Critical_ROB_Stalls_Percent_1_Bucket_2: 191530
Non-critical_ROB_Stalls_Percent_1_Bucket_2: 52939
Critical_ROB_Stalls_Percent_1_Bucket_3: 41895
Non-critical_ROB_Stalls_Percent_1_Bucket_3: 8958
Critical_ROB_Stalls_Percent_1_Bucket_4: 11330
Non-critical_ROB_Stalls_Percent_1_Bucket_4: 5178
Critical_ROB_Stalls_Percent_1_Bucket_5: 6470
Non-critical_ROB_Stalls_Percent_1_Bucket_5: 1235
Critical_ROB_Stalls_Percent_1_Bucket_6: 16120
Non-critical_ROB_Stalls_Percent_1_Bucket_6: 1514
Critical_ROB_Stalls_Percent_2_Bucket_0: 1388236
Non-critical_ROB_Stalls_Percent_2_Bucket_0: 1132450
Critical_ROB_Stalls_Percent_2_Bucket_1: 406987
Non-critical_ROB_Stalls_Percent_2_Bucket_1: 196610
Critical_ROB_Stalls_Percent_2_Bucket_2: 201725
Non-critical_ROB_Stalls_Percent_2_Bucket_2: 42744
Critical_ROB_Stalls_Percent_2_Bucket_3: 43647
Non-critical_ROB_Stalls_Percent_2_Bucket_3: 7206
Critical_ROB_Stalls_Percent_2_Bucket_4: 13869
Non-critical_ROB_Stalls_Percent_2_Bucket_4: 2639
Critical_ROB_Stalls_Percent_2_Bucket_5: 6767
Non-critical_ROB_Stalls_Percent_2_Bucket_5: 938
Critical_ROB_Stalls_Percent_2_Bucket_6: 16268
Non-critical_ROB_Stalls_Percent_2_Bucket_6: 1366
Critical_ROB_Stalls_Percent_3_Bucket_0: 1508062
Non-critical_ROB_Stalls_Percent_3_Bucket_0: 1012624
Critical_ROB_Stalls_Percent_3_Bucket_1: 445652
Non-critical_ROB_Stalls_Percent_3_Bucket_1: 157945
Critical_ROB_Stalls_Percent_3_Bucket_2: 212338
Non-critical_ROB_Stalls_Percent_3_Bucket_2: 32131
Critical_ROB_Stalls_Percent_3_Bucket_3: 46047
Non-critical_ROB_Stalls_Percent_3_Bucket_3: 4806
Critical_ROB_Stalls_Percent_3_Bucket_4: 14816
Non-critical_ROB_Stalls_Percent_3_Bucket_4: 1692
Critical_ROB_Stalls_Percent_3_Bucket_5: 6936
Non-critical_ROB_Stalls_Percent_3_Bucket_5: 769
Critical_ROB_Stalls_Percent_3_Bucket_6: 16356
Non-critical_ROB_Stalls_Percent_3_Bucket_6: 1278
Critical_ROB_Stalls_Percent_4_Bucket_0: 1645789
Non-critical_ROB_Stalls_Percent_4_Bucket_0: 874897
Critical_ROB_Stalls_Percent_4_Bucket_1: 475010
Non-critical_ROB_Stalls_Percent_4_Bucket_1: 128587
Critical_ROB_Stalls_Percent_4_Bucket_2: 217907
Non-critical_ROB_Stalls_Percent_4_Bucket_2: 26562
Critical_ROB_Stalls_Percent_4_Bucket_3: 46362
Non-critical_ROB_Stalls_Percent_4_Bucket_3: 4491
Critical_ROB_Stalls_Percent_4_Bucket_4: 14836
Non-critical_ROB_Stalls_Percent_4_Bucket_4: 1672
Critical_ROB_Stalls_Percent_4_Bucket_5: 6952
Non-critical_ROB_Stalls_Percent_4_Bucket_5: 753
Critical_ROB_Stalls_Percent_4_Bucket_6: 16361
Non-critical_ROB_Stalls_Percent_4_Bucket_6: 1273
Critical_ROB_Stalls_Percent_5_Bucket_0: 1773886
Non-critical_ROB_Stalls_Percent_5_Bucket_0: 746800
Critical_ROB_Stalls_Percent_5_Bucket_1: 510183
Non-critical_ROB_Stalls_Percent_5_Bucket_1: 93414
Critical_ROB_Stalls_Percent_5_Bucket_2: 226179
Non-critical_ROB_Stalls_Percent_5_Bucket_2: 18290
Critical_ROB_Stalls_Percent_5_Bucket_3: 47261
Non-critical_ROB_Stalls_Percent_5_Bucket_3: 3592
Critical_ROB_Stalls_Percent_5_Bucket_4: 14884
Non-critical_ROB_Stalls_Percent_5_Bucket_4: 1624
Critical_ROB_Stalls_Percent_5_Bucket_5: 6976
Non-critical_ROB_Stalls_Percent_5_Bucket_5: 729
Critical_ROB_Stalls_Percent_5_Bucket_6: 16793
Non-critical_ROB_Stalls_Percent_5_Bucket_6: 841
Critical_ROB_Stalls_Percent_6_Bucket_0: 1920544
Non-critical_ROB_Stalls_Percent_6_Bucket_0: 600142
Critical_ROB_Stalls_Percent_6_Bucket_1: 530620
Non-critical_ROB_Stalls_Percent_6_Bucket_1: 72977
Critical_ROB_Stalls_Percent_6_Bucket_2: 231150
Non-critical_ROB_Stalls_Percent_6_Bucket_2: 13319
Critical_ROB_Stalls_Percent_6_Bucket_3: 48111
Non-critical_ROB_Stalls_Percent_6_Bucket_3: 2742
Critical_ROB_Stalls_Percent_6_Bucket_4: 15069
Non-critical_ROB_Stalls_Percent_6_Bucket_4: 1439
Critical_ROB_Stalls_Percent_6_Bucket_5: 7009
Non-critical_ROB_Stalls_Percent_6_Bucket_5: 696
Critical_ROB_Stalls_Percent_6_Bucket_6: 16904
Non-critical_ROB_Stalls_Percent_6_Bucket_6: 730
Critical_ROB_Stalls_Percent_7_Bucket_0: 2067399
Non-critical_ROB_Stalls_Percent_7_Bucket_0: 453287
Critical_ROB_Stalls_Percent_7_Bucket_1: 551816
Non-critical_ROB_Stalls_Percent_7_Bucket_1: 51781
Critical_ROB_Stalls_Percent_7_Bucket_2: 235743
Non-critical_ROB_Stalls_Percent_7_Bucket_2: 8726
Critical_ROB_Stalls_Percent_7_Bucket_3: 48313
Non-critical_ROB_Stalls_Percent_7_Bucket_3: 2540
Critical_ROB_Stalls_Percent_7_Bucket_4: 15107
Non-critical_ROB_Stalls_Percent_7_Bucket_4: 1401
Critical_ROB_Stalls_Percent_7_Bucket_5: 7049
Non-critical_ROB_Stalls_Percent_7_Bucket_5: 656
Critical_ROB_Stalls_Percent_7_Bucket_6: 16931
Non-critical_ROB_Stalls_Percent_7_Bucket_6: 703
Critical_ROB_Stalls_Percent_8_Bucket_0: 2219925
Non-critical_ROB_Stalls_Percent_8_Bucket_0: 300761
Critical_ROB_Stalls_Percent_8_Bucket_1: 569164
Non-critical_ROB_Stalls_Percent_8_Bucket_1: 34433
Critical_ROB_Stalls_Percent_8_Bucket_2: 237733
Non-critical_ROB_Stalls_Percent_8_Bucket_2: 6736
Critical_ROB_Stalls_Percent_8_Bucket_3: 48942
Non-critical_ROB_Stalls_Percent_8_Bucket_3: 1911
Critical_ROB_Stalls_Percent_8_Bucket_4: 15549
Non-critical_ROB_Stalls_Percent_8_Bucket_4: 959
Critical_ROB_Stalls_Percent_8_Bucket_5: 7061
Non-critical_ROB_Stalls_Percent_8_Bucket_5: 644
Critical_ROB_Stalls_Percent_8_Bucket_6: 16932
Non-critical_ROB_Stalls_Percent_8_Bucket_6: 702
Average ROB occupancy Load Stall Begin: 35.1886
Average ROB occupancy Load Stall End: 43.2065
Min ROB occupancy Load Stall Begin: 1
Max ROB occupancy Load Stall Begin: 352
Min ROB occupancy Load Stall End: 1
Max ROB occupancy Load Stall End: 352
Average ROB occupancy Critical Load Stall Begin: 38.1704
Average ROB occupancy Critical Load Stall End: 45.3492
Min ROB occupancy Critical Load Stall Begin: 3
Max ROB occupancy Critical Load Stall Begin: 352
Min ROB occupancy Critical Load Stall End: 3
Max ROB occupancy Critical Load Stall End: 352
 ROB Load Stall Begin Bucket Count 0: 2722827
 ROB Load Stall End Bucket Count 0: 2520686
 ROB Critical Load Stall Begin Bucket Count 0: 611478
 ROB Critical Load Stall End Bucket Count 0: 604847
 ROB Load Stall Begin Bucket Count 1: 481108
 ROB Load Stall End Bucket Count 1: 603597
 ROB Critical Load Stall Begin Bucket Count 1: 80341
 ROB Critical Load Stall End Bucket Count 1: 71180
 ROB Load Stall Begin Bucket Count 2: 185542
 ROB Load Stall End Bucket Count 2: 244469
 ROB Critical Load Stall Begin Bucket Count 2: 57917
 ROB Critical Load Stall End Bucket Count 2: 68969
 ROB Load Stall Begin Bucket Count 3: 35026
 ROB Load Stall End Bucket Count 3: 50853
 ROB Critical Load Stall Begin Bucket Count 3: 8244
 ROB Critical Load Stall End Bucket Count 3: 12413
 ROB Load Stall Begin Bucket Count 4: 13192
 ROB Load Stall End Bucket Count 4: 16508
 ROB Critical Load Stall Begin Bucket Count 4: 5295
 ROB Critical Load Stall End Bucket Count 4: 5459
 ROB Load Stall Begin Bucket Count 5: 6977
 ROB Load Stall End Bucket Count 5: 7705
 ROB Critical Load Stall Begin Bucket Count 5: 5106
 ROB Critical Load Stall End Bucket Count 5: 5101
 ROB Load Stall Begin Bucket Count 6: 16781
 ROB Load Stall End Bucket Count 6: 17634
 ROB Critical Load Stall Begin Bucket Count 6: 14975
 ROB Critical Load Stall End Bucket Count 6: 15387
PIST Tag Read Accesses: 1969544
PIST Read Accesses: 984772
PIST Tag Write Accesses: 1969544
PIST Write Accesses: 984772
Criticality detector called times: 2678096
Max global_stall_cycles_count: 2032797
Threshold Modified: 1 times, factor: -1
Sturdy critical IP cache stats: 
 Unused entries: 0
CIC Tag Read Accesses: 0
CIC Read Accesses: 0
CIC Tag Write Accesses: 0
CIC Write Accesses: 0
Wobbly critical IP cache stats: 
 Unused entries: 110
CIC Tag Read Accesses: 78819560
CIC Read Accesses: 0
CIC Tag Write Accesses: 20
CIC Write Accesses: 0
ITLB TOTAL     ACCESS:   10310251  HIT:    9798336  MISS:     511915  HIT %:    95.0349  MISS %:    4.96511   MPKI: 10.2383
ITLB LOAD TRANSLATION ACCESS:    8795793  HIT:    8722927  MISS:      72866  HIT %:    99.1716  MISS %:   0.828419   MPKI: 1.45732
ITLB TRANSLATION FROM L1D PREFETCHER ACCESS:    1514458  HIT:    1075409  MISS:     439049  HIT %:    71.0095  MISS %:    28.9905   MPKI: 8.78098
ITLBprefetch_cycle_count: 0 prefetches_per_prefetch_cycle: -nan
ITLB PREFETCH  REQUESTED:          0  ISSUED:          0  USEFUL:     343321  USELESS:      95731
ITLB USEFUL LOAD PREFETCHES:     343321 PREFETCH ISSUED TO LOWER LEVEL:          0  ACCURACY: inf
ITLB TIMELY PREFETCHES:     343321 LATE PREFETCHES: 445 DROPPED PREFETCHES: 3222
ITLB PREFETCHES SAME FILL-ORIGIN LEVEL: 0 DIFFERENT FILL-ORIGIN LEVEL: 0
ITLB AVERAGE MISS LATENCY: 54034.3 cycles
ITLB RQ	ACCESS:   14205111	FORWARD:          0	MERGED:    3859316	TO_CACHE:   10345795

DTLB TOTAL     ACCESS:   10171741  HIT:    9788131  MISS:     383610  HIT %:    96.2287  MISS %:    3.77133   MPKI: 7.6722
DTLB LOAD TRANSLATION ACCESS:   10171741  HIT:    9788131  MISS:     383610  HIT %:    96.2287  MISS %:    3.77133   MPKI: 7.6722
DTLBprefetch_cycle_count: 0 prefetches_per_prefetch_cycle: -nan
DTLB PREFETCH  REQUESTED:          0  ISSUED:          0  USEFUL:          0  USELESS:          0
DTLB USEFUL LOAD PREFETCHES:          0 PREFETCH ISSUED TO LOWER LEVEL:          0  ACCURACY: -nan
DTLB TIMELY PREFETCHES:          0 LATE PREFETCHES: 0 DROPPED PREFETCHES: 0
DTLB PREFETCHES SAME FILL-ORIGIN LEVEL: 0 DIFFERENT FILL-ORIGIN LEVEL: 0
DTLB AVERAGE MISS LATENCY: 9.3881 cycles
DTLB RQ	ACCESS:   13084434	FORWARD:          0	MERGED:    2890714	TO_CACHE:   10193720

STLB TOTAL     ACCESS:    1507483  HIT:    1505456  MISS:       2027  HIT %:    99.8655  MISS %:   0.134463   MPKI: 0.04054
STLB LOAD TRANSLATION ACCESS:     456031  HIT:     454148  MISS:       1883  HIT %:    99.5871  MISS %:   0.412911   MPKI: 0.03766
STLB TRANSLATION FROM L1D PREFETCHER ACCESS:    1051452  HIT:    1051308  MISS:        144  HIT %:    99.9863  MISS %:  0.0136953   MPKI: 0.00288
STLBprefetch_cycle_count: 0 prefetches_per_prefetch_cycle: -nan
STLB PREFETCH  REQUESTED:          0  ISSUED:          0  USEFUL:        131  USELESS:         13
STLB USEFUL LOAD PREFETCHES:        131 PREFETCH ISSUED TO LOWER LEVEL:          0  ACCURACY: inf
STLB TIMELY PREFETCHES:        131 LATE PREFETCHES: 0 DROPPED PREFETCHES: 3222
STLB PREFETCHES SAME FILL-ORIGIN LEVEL: 0 DIFFERENT FILL-ORIGIN LEVEL: 0
STLB AVERAGE MISS LATENCY: 78.5195 cycles
STLB RQ	ACCESS:    2171443	FORWARD:          0	MERGED:     660738	TO_CACHE:    1510705

STLB Hit, L1D data hit: 0
STLB Hit, L2C data hit: 0
STLB Hit, LLC data hit: 0
STLB Hit, LLC data miss: 0
STLB STLB hints to L2: 0
L1D TOTAL     ACCESS:   13944363  HIT:   13110027  MISS:     834336  HIT %:    94.0167  MISS %:    5.98332   MPKI: 16.6867
L1D LOAD      ACCESS:    7410205  HIT:    6809103  MISS:     601102  HIT %:    91.8882  MISS %:    8.11181   MPKI: 12.022
L1D RFO       ACCESS:    5264851  HIT:    5036989  MISS:     227862  HIT %:     95.672  MISS %:    4.32799   MPKI: 4.55724
L1D PREFETCH  ACCESS:    1269307  HIT:    1263935  MISS:       5372  HIT %:    99.5768  MISS %:   0.423223   MPKI: 0.10744
L1Dprefetch_cycle_count: 661427 prefetches_per_prefetch_cycle: 3.84833
L1D PREFETCH  REQUESTED:    2545782  ISSUED:    2545392  USEFUL:       1218  USELESS:       4155
L1D USEFUL LOAD PREFETCHES:       1218 PREFETCH ISSUED TO LOWER LEVEL:       7133  ACCURACY: 17.0756
L1D TIMELY PREFETCHES:       1218 LATE PREFETCHES: 1761 DROPPED PREFETCHES: 0
L1D PREFETCHES SAME FILL-ORIGIN LEVEL: 7133 DIFFERENT FILL-ORIGIN LEVEL: 0
L1D AVERAGE MISS LATENCY: 144428 cycles
L1D RQ	ACCESS:   10323655	FORWARD:          0	MERGED:    2773162	TO_CACHE:    7443249
L1D WQ	ACCESS:    5697707	FORWARD:     107244	MERGED:      56522	TO_CACHE:    5641185
L1D PQ	ACCESS:    1272696	FORWARD:          0	MERGED:          0	TO_CACHE:    1272696

L1D UNIQUE REGIONS ACCESSED: 0
L1D REGIONS CONFLICTS: 0
L1D Cross Page Prefetch Requests: 0
L1D Same Page Prefetch Requests: 1277840
L1D ROI Sum of L1D PQ occupancy: 16486673
L1D PREFETCHES PUSHED FROM L2C: 0
L1I TOTAL     ACCESS:   14086616  HIT:   10981136  MISS:    3105480  HIT %:    77.9544  MISS %:    22.0456   MPKI: 62.1096
L1I LOAD      ACCESS:    9937399  HIT:    9714348  MISS:     223051  HIT %:    97.7554  MISS %:    2.24456   MPKI: 4.46102
L1I PREFETCH  ACCESS:    4149217  HIT:    1266788  MISS:    2882429  HIT %:    30.5308  MISS %:    69.4692   MPKI: 57.6486
L1Iprefetch_cycle_count: 0 prefetches_per_prefetch_cycle: inf
L1I PREFETCH  REQUESTED:    4352108  ISSUED:    4343192  USEFUL:    1953479  USELESS:     928899
L1I USEFUL LOAD PREFETCHES:    1953479 PREFETCH ISSUED TO LOWER LEVEL:    2908133  ACCURACY: 67.173
L1I TIMELY PREFETCHES:    1953479 LATE PREFETCHES: 25704 DROPPED PREFETCHES: 7902
L1I PREFETCHES SAME FILL-ORIGIN LEVEL: 2908133 DIFFERENT FILL-ORIGIN LEVEL: 0
L1I AVERAGE MISS LATENCY: 495174 cycles
L1I RQ	ACCESS:   13362858	FORWARD:          0	MERGED:    3405284	TO_CACHE:    9957574
L1I PQ	ACCESS:    4343192	FORWARD:          0	MERGED:      95655	TO_CACHE:    4247537

BTB TOTAL     ACCESS:    6534034  HIT:    5095597  MISS:    1438437  HIT %:    77.9855  MISS %:    22.0145   MPKI: 28.7687
BTB BRANCH_DIRECT_JUMP	ACCESS:     487044  HIT:     364834  MISS:     122210
BTB BRANCH_INDIRECT	ACCESS:     169158  HIT:     142414  MISS:      26744
BTB BRANCH_CONDITIONAL	ACCESS:    4098719  HIT:    3717570  MISS:     381149
BTB BRANCH_DIRECT_CALL	ACCESS:     755585  HIT:     471450  MISS:     284135
BTB BRANCH_INDIRECT_CALL	ACCESS:     133962  HIT:      76124  MISS:      57838
BTB BRANCH_RETURN	ACCESS:     889566  HIT:     323205  MISS:     566361
BTB BRANCH_OTHER ACCESS:          0  HIT:          0  MISS:          0

L2C TOTAL     ACCESS:    5275675  HIT:    4574812  MISS:     700863  HIT %:    86.7152  MISS %:    13.2848   MPKI: 14.0173
L2C LOAD      ACCESS:     796638  HIT:     607028  MISS:     189610  HIT %:    76.1987  MISS %:    23.8013   MPKI: 3.7922
L2C DATA LOAD MPKI: 3.06112
L2C INSTRUCTION LOAD MPKI: 0.73108
L2C RFO       ACCESS:     227856  HIT:     161533  MISS:      66323  HIT %:    70.8926  MISS %:    29.1074   MPKI: 1.32646
L2C PREFETCH  ACCESS:    3856065  HIT:    3443506  MISS:     412559  HIT %:     89.301  MISS %:     10.699   MPKI: 8.25118
L2C DATA PREFETCH MPKI: 2.02642
L2C INSTRUCTION PREFETCH MPKI: 6.22476
L2C WRITEBACK ACCESS:     387531  HIT:     357062  MISS:      30469  HIT %:    92.1377  MISS %:    7.86234   MPKI: 0.60938
L2C LOAD TRANSLATION ACCESS:       2110  HIT:        475  MISS:       1635  HIT %:    22.5118  MISS %:    77.4882   MPKI: 0.0327
L2C TRANSLATION FROM L1D PREFETCHER ACCESS:       5475  HIT:       5208  MISS:        267  HIT %:    95.1233  MISS %:    4.87671   MPKI: 0.00534
L2Cprefetch_cycle_count: 2578580 prefetches_per_prefetch_cycle: 1.00002
L2C PREFETCH  REQUESTED:    2578638  ISSUED:    2578638  USEFUL:      10968  USELESS:     400204
L2C USEFUL LOAD PREFETCHES:      10968 PREFETCH ISSUED TO LOWER LEVEL:     412826  ACCURACY: 2.65681
L2C TIMELY PREFETCHES:      10968 LATE PREFETCHES: 267 DROPPED PREFETCHES: 0
L2C PREFETCHES SAME FILL-ORIGIN LEVEL: 99533 DIFFERENT FILL-ORIGIN LEVEL: 0
L2C AVERAGE MISS LATENCY: 35.0396 cycles
L2C RQ	ACCESS:    1032135	FORWARD:          0	MERGED:          0	TO_CACHE:    1032079
L2C WQ	ACCESS:     387531	FORWARD:         56	MERGED:          0	TO_CACHE:     387531
L2C PQ	ACCESS:    5493904	FORWARD:          0	MERGED:    1631990	TO_CACHE:    3861914

L2C Instructions Evicting Data 169640
L2C Translations Evicting Data 1308
L2C Data Evicting Data 166923
L2C Instructions Evicting Instructions 177490
L2C Translations Evicting Instructions 584
L2C Data Evicting Instructions 152563
L2C Instructions Evicting Translations 662
L2C Translations Evicting Translations 10
L2C Data Evicting Translations 1214
L2C Dense regions hint from L2: 0
PSCL5 TOTAL     ACCESS:       5249  HIT:       5249  MISS:          0  HIT %:        100  MISS %:          0   MPKI: 0
PSCL5 LOAD TRANSLATION ACCESS:       1883  HIT:       1883  MISS:          0  HIT %:        100  MISS %:          0   MPKI: 0
PSCL5 TRANSLATION FROM L1D PREFETCHER ACCESS:       3366  HIT:       3366  MISS:          0  HIT %:        100  MISS %:          0   MPKI: 0
PSCL5prefetch_cycle_count: 0 prefetches_per_prefetch_cycle: -nan
PSCL5 PREFETCH  REQUESTED:          0  ISSUED:          0  USEFUL:          0  USELESS:          0
PSCL5 USEFUL LOAD PREFETCHES:          0 PREFETCH ISSUED TO LOWER LEVEL:          0  ACCURACY: -nan
PSCL5 TIMELY PREFETCHES:          0 LATE PREFETCHES: 0 DROPPED PREFETCHES: 0
PSCL5 PREFETCHES SAME FILL-ORIGIN LEVEL: 0 DIFFERENT FILL-ORIGIN LEVEL: 0

PSCL4 TOTAL     ACCESS:       4953  HIT:       4941  MISS:         12  HIT %:    99.7577  MISS %:   0.242277   MPKI: 0.00024
PSCL4 LOAD TRANSLATION ACCESS:       1667  HIT:       1655  MISS:         12  HIT %:    99.2801  MISS %:   0.719856   MPKI: 0.00024
PSCL4 TRANSLATION FROM L1D PREFETCHER ACCESS:       3286  HIT:       3286  MISS:          0  HIT %:        100  MISS %:          0   MPKI: 0
PSCL4prefetch_cycle_count: 0 prefetches_per_prefetch_cycle: -nan
PSCL4 PREFETCH  REQUESTED:          0  ISSUED:          0  USEFUL:          0  USELESS:          0
PSCL4 USEFUL LOAD PREFETCHES:          0 PREFETCH ISSUED TO LOWER LEVEL:          0  ACCURACY: -nan
PSCL4 TIMELY PREFETCHES:          0 LATE PREFETCHES: 0 DROPPED PREFETCHES: 0
PSCL4 PREFETCHES SAME FILL-ORIGIN LEVEL: 0 DIFFERENT FILL-ORIGIN LEVEL: 0

PSCL3 TOTAL     ACCESS:       5127  HIT:       5115  MISS:         12  HIT %:    99.7659  MISS %:   0.234055   MPKI: 0.00024
PSCL3 LOAD TRANSLATION ACCESS:       1841  HIT:       1829  MISS:         12  HIT %:    99.3482  MISS %:    0.65182   MPKI: 0.00024
PSCL3 TRANSLATION FROM L1D PREFETCHER ACCESS:       3286  HIT:       3286  MISS:          0  HIT %:        100  MISS %:          0   MPKI: 0
PSCL3prefetch_cycle_count: 0 prefetches_per_prefetch_cycle: -nan
PSCL3 PREFETCH  REQUESTED:          0  ISSUED:          0  USEFUL:          0  USELESS:          0
PSCL3 USEFUL LOAD PREFETCHES:          0 PREFETCH ISSUED TO LOWER LEVEL:          0  ACCURACY: -nan
PSCL3 TIMELY PREFETCHES:          0 LATE PREFETCHES: 0 DROPPED PREFETCHES: 0
PSCL3 PREFETCHES SAME FILL-ORIGIN LEVEL: 0 DIFFERENT FILL-ORIGIN LEVEL: 0

PSCL2 TOTAL     ACCESS:       3284  HIT:       3045  MISS:        239  HIT %:    92.7223  MISS %:    7.27771   MPKI: 0.00478
PSCL2 LOAD TRANSLATION ACCESS:       1913  HIT:       1674  MISS:        239  HIT %:    87.5065  MISS %:    12.4935   MPKI: 0.00478
PSCL2 TRANSLATION FROM L1D PREFETCHER ACCESS:       1371  HIT:       1371  MISS:          0  HIT %:        100  MISS %:          0   MPKI: 0
PSCL2prefetch_cycle_count: 0 prefetches_per_prefetch_cycle: -nan
PSCL2 PREFETCH  REQUESTED:          0  ISSUED:          0  USEFUL:          0  USELESS:          0
PSCL2 USEFUL LOAD PREFETCHES:          0 PREFETCH ISSUED TO LOWER LEVEL:          0  ACCURACY: -nan
PSCL2 TIMELY PREFETCHES:          0 LATE PREFETCHES: 0 DROPPED PREFETCHES: 0
PSCL2 PREFETCHES SAME FILL-ORIGIN LEVEL: 0 DIFFERENT FILL-ORIGIN LEVEL: 0

LLC TOTAL     ACCESS:     768048  HIT:     739794  MISS:      28254  HIT %:    96.3213  MISS %:    3.67868   MPKI: 0.56508
LLC LOAD      ACCESS:     189343  HIT:     178438  MISS:      10905  HIT %:    94.2406  MISS %:    5.75939   MPKI: 0.2181
LLC RFO       ACCESS:      66323  HIT:      51839  MISS:      14484  HIT %:    78.1614  MISS %:    21.8386   MPKI: 0.28968
LLC PREFETCH  ACCESS:     412826  HIT:     410394  MISS:       2432  HIT %:    99.4109  MISS %:    0.58911   MPKI: 0.04864
LLC WRITEBACK ACCESS:      97654  HIT:      97357  MISS:        297  HIT %:    99.6959  MISS %:   0.304135   MPKI: 0.00594
LLC LOAD TRANSLATION ACCESS:       1635  HIT:       1516  MISS:        119  HIT %:    92.7217  MISS %:    7.27829   MPKI: 0.00238
LLC TRANSLATION FROM L1D PREFETCHER ACCESS:        267  HIT:        250  MISS:         17  HIT %:     93.633  MISS %:    6.36704   MPKI: 0.00034
LLCprefetch_cycle_count: 0 prefetches_per_prefetch_cycle: -nan
LLC PREFETCH  REQUESTED:          0  ISSUED:          0  USEFUL:        159  USELESS:       2185
LLC USEFUL LOAD PREFETCHES:        159 PREFETCH ISSUED TO LOWER LEVEL:       2432  ACCURACY: 6.53783
LLC TIMELY PREFETCHES:        159 LATE PREFETCHES: 0 DROPPED PREFETCHES: 0
LLC PREFETCHES SAME FILL-ORIGIN LEVEL: 0 DIFFERENT FILL-ORIGIN LEVEL: 0
LLC AVERAGE MISS LATENCY: 156.102 cycles
LLC RQ	ACCESS:     257568	FORWARD:          0	MERGED:          0	TO_CACHE:     257568
LLC WQ	ACCESS:      97654	FORWARD:          0	MERGED:          0	TO_CACHE:      97654
LLC PQ	ACCESS:     412826	FORWARD:          0	MERGED:          0	TO_CACHE:     412826

LLC Dense regions hint to LLC: 0

RAW hits: 808655
Loads Generated: 11132312
Loads sent to L1D: 10323655
Stores Generated: 5697707
Stores sent to L1D: 5697707
Major fault: 0 Minor fault: 2472
Allocated PAGES: 2472
I-Shadow cache 408 bytes
Touched + WorthPF tables 6144 bytes 
MMA filter 174 bytes 
FNL filter 272 bytes 
TOTAL PREFETCHER STORAGE SIZE: 25174 bytes
CPU 0 L1I next line prefetcher final stats

total_pref_operate_instances_l1: 923771
dynamic_config_counter_instances_1: 1145
dynamic_config_counter_instances_2: 4207
dynamic_config_counter_instances_3: 770859
dynamic_config_counter_instances_4: 14473
dynamic_config_counter_instances_5: 133087
stream: 
stream:times selected: 730863
stream:pref_filled: 5577
stream:pref_useful: 1709
stream:pref_late: 1161
stream:misses: 313
stream:misses_by_poll: 0

CS: 
CS:times selected: 667652
CS:pref_filled: 307
CS:pref_useful: 92
CS:pref_late: 37
CS:misses: 68
CS:misses_by_poll: 0

CPLX: 
CPLX:times selected: 71332
CPLX:pref_filled: 1592
CPLX:pref_useful: 145
CPLX:pref_late: 23
CPLX:misses: 6062
CPLX:misses_by_poll: 4

NL_L1: 
NL:times selected: 3231
NL:pref_filled: 27
NL:pref_useful: 4
NL:pref_late: 2
NL:misses: 38
NL:misses_by_poll: 0

total selections: 1473078
total_filled: 5372
total_useful: 1218
total_late: 2262
total_polluted: 4
total_misses_after_warmup: 6036
conflicts: 12722
Degree Incremented Times: 0
Degree Decremented Times: 17323

L1 IP Table Write Accesses: 896586
L1 IP Table Read Accesses: 883864
L1 RST Write Accesses: 727532
L1 RST Read Accesses: 1455064
L1 CSPT Write Accesses: 727532
L1 CSPT Read Accesses: 795903
L1 RR Filter Tag Write Accesses: 1273086
L1 RR Filter Tag Read Accesses: 82784004
L1 IP Table Tag Write Accesses: 923771
L1 IP Table Tag Read Accesses: 923771
L1 RST Tag Write Accesses: 0
L1 RST Tag Read Accesses: 6469813
L1 RR Filter Write Accesses: 0
L1 RR Filter Read Accesses: 2697053
test: 30750
total_pref_operate_instances_l2: 2634768
dynamic_config_counter_instances_l2_1: 2621127
dynamic_config_counter_instances_l2_2: 9592
dynamic_config_counter_instances_l2_3: 4049
dynamic_config_counter_instances_l2_4: 0
dynamic_config_counter_instances_l2_5: 0
L2 IP Table Read Accesses: 2648929
L2 IP Table Write Accesses: 5262495
L2 IP Table Tag Read Accesses: 2634768
L2 IP Table Tag Write Accesses: 2634768

DRAM Statistics
 CHANNEL 0
 RQ ROW_BUFFER_HIT:       9864  ROW_BUFFER_MISS:      18090
 DBUS_CONGESTED:          2
 WQ ROW_BUFFER_HIT:       1497  ROW_BUFFER_MISS:      13044  FULL:          0

 AVG_CONGESTED_CYCLE: 5
 All warmup complete: 2
Channel 0 Bank busy for read cycles: 0
Channel 0 Bank busy for write cycles: 0
Channel 0
Rank 0
0banks busy for read cycles: 75317127
0banks busy for write cycles: 3742
1banks busy for read cycles: 1497910
1banks busy for write cycles: 528175
2banks busy for read cycles: 156168
2banks busy for write cycles: 164702
3banks busy for read cycles: 58576
3banks busy for write cycles: 116077
4banks busy for read cycles: 29922
4banks busy for write cycles: 96886
5banks busy for read cycles: 24671
5banks busy for write cycles: 80379
6banks busy for read cycles: 28220
6banks busy for write cycles: 79296
7banks busy for read cycles: 32684
7banks busy for write cycles: 68622
8banks busy for read cycles: 74310
8banks busy for write cycles: 88218

CPU 0 Branch Prediction Accuracy: 99.7225% MPKI: 0.50376 Average ROB Occupancy at Mispredict: 61.7412
Branch types
NOT_BRANCH: 40923872 81.8477%
BRANCH_DIRECT_JUMP: 487044 0.974088%
BRANCH_INDIRECT: 169158 0.338316%
BRANCH_CONDITIONAL: 6640823 13.2816%
BRANCH_DIRECT_CALL: 755585 1.51117%
BRANCH_INDIRECT_CALL: 133962 0.267924%
BRANCH_RETURN: 889566 1.77913%
BRANCH_OTHER: 0 0%

DRAM PAGES: 1048576
Allocated PAGES: 2472
