
*** ChampSim Multicore Out-of-Order Simulator ***

Warmup Instructions: 50000000
Simulation Instructions: 50000000
Number of CPUs: 1
LLC sets: 2048
LLC ways: 16
Off-chip DRAM Size: 4096 MB Channels: 1 Width: 64-bit Data Rate: 6400 MT/s
CPU 0 runs ../IPC-traces//server_016.champsimtrace.xz
.xz
BTB has LRU replacement policy
ITLB has LRU replacement policy
DTLB has LRU replacement policy
STLB has LRU replacement policy
CPU 0 L1I next line prefetcher
L1I has LRU replacement policy
IP Table Entries: 64
L1D has LRU replacement policy
Initialize SRRIP state for L2C
Initialize DRRIP state for LLC
Heartbeat CPU 0 instructions: 10000000 cycles: 2878959 heartbeat IPC: 3.47348 cumulative IPC: 3.47348 (Simulation time: 0 hr 4 min 52 sec) 
Heartbeat CPU 0 instructions: 20000000 cycles: 5752487 heartbeat IPC: 3.48004 cumulative IPC: 3.47676 (Simulation time: 0 hr 8 min 56 sec) 
Heartbeat CPU 0 instructions: 30000001 cycles: 8623913 heartbeat IPC: 3.48259 cumulative IPC: 3.4787 (Simulation time: 0 hr 12 min 59 sec) 
Heartbeat CPU 0 instructions: 40000001 cycles: 11778783 heartbeat IPC: 3.1697 cumulative IPC: 3.39594 (Simulation time: 0 hr 15 min 22 sec) 
Heartbeat CPU 0 instructions: 50000002 cycles: 15014247 heartbeat IPC: 3.09075 cumulative IPC: 3.33017 (Simulation time: 0 hr 17 min 0 sec) 

Warmup complete CPU 0 instructions: 50000002 cycles: 15014247 (Simulation time: 0 hr 17 min 0 sec) 

Heartbeat CPU 0 instructions: 60000001 cycles: 29659616 heartbeat IPC: 0.68281 cumulative IPC: 0.68281 (Simulation time: 0 hr 19 min 31 sec) 
Heartbeat CPU 0 instructions: 70000001 cycles: 45650575 heartbeat IPC: 0.625353 cumulative IPC: 0.65282 (Simulation time: 0 hr 22 min 52 sec) 
Heartbeat CPU 0 instructions: 80000000 cycles: 61814537 heartbeat IPC: 0.61866 cumulative IPC: 0.641022 (Simulation time: 0 hr 26 min 21 sec) 
Heartbeat CPU 0 instructions: 90000000 cycles: 77529893 heartbeat IPC: 0.63632 cumulative IPC: 0.63984 (Simulation time: 0 hr 29 min 34 sec) 
Heartbeat CPU 0 instructions: 100000000 cycles: 93471638 heartbeat IPC: 0.627284 cumulative IPC: 0.637289 (Simulation time: 0 hr 32 min 55 sec) 
Finished CPU 0 instructions: 50000000 cycles: 78457392 cumulative IPC: 0.637289 (Simulation time: 0 hr 32 min 55 sec) 

ChampSim completed all CPUs

Region of Interest Statistics

CPU 0 cumulative IPC: 0.637289 instructions: 50000000 cycles: 78457392

CPU 0 Average Load ROB stall cycles: 2.01696e+07
CPU 0 Fraction of times ROB stalled by Loads: 38.0994
CPU 0 Percentage of Load stall cycles in Total stall cycles: 2.80449e+08
Issued all: 28655615
Issued LT all: 22413907
rob_not_full_when_issued_lt_all: 22108200
Issued LT one: 18233237
rob_not_full_when_issued_lt_one: 17966596
 Total stall cycles: 65316947
 Total load stall cycles: 183180823859718
Unique Load IPs: 13820
CPU 0 NUM of IPS identified critical: 21
CPU 0 Num of Load IPs stalling ROB: 0
Threshold modification factor: 0
Trouble in retire width: -nan
MaC = Marked as critical.
lt_50_percent_before_Mac: 2
gt_90_percent_before_Mac: 4
gt_75_percent_before_Mac: 4
gt_50_percent_before_Mac: 6
stall_proportion_bin_same_before_after: 0
stall_proportion_bin_lower_before_after: 0
stall_proportion_bin_upper_before_after: 0
average_stall_proportion_before: 0.0483161
average_stall_proportion_after: 0.0467017
Critical_IP_Detector_Accuracy_70: 0
Critical_IP_Detector_Accuracy_80: 0
Critical_IP_Detector_Accuracy_90: 0
Critical_IP_Detector_Coverage_70: 0
Critical_IP_Detector_Coverage_80: 0
Critical_IP_Detector_Coverage_90: 0
stat_90_percent_critical_ip_stalls_freq: 616069
stat_90_percent_non_critical_ip_stalls_freq: 18446744073708935547
AVERAGE_ROB_Occupancy_90_Percent_Critical_IP_Stalls: 18.0575
AVERAGE_ROB_Occupancy_90_Percent_Non_Critical_IP_Stalls: 7.49401e-12
Critical_IP_ROB_Stalls_Bucket_0: 5981
Non-critical_IP_ROB_Stalls_Bucket_0: 2512134
Critical_IP_ROB_Stalls_Bucket_1: 1869
Non-critical_IP_ROB_Stalls_Bucket_1: 605212
Critical_IP_ROB_Stalls_Bucket_2: 821
Non-critical_IP_ROB_Stalls_Bucket_2: 242577
Critical_IP_ROB_Stalls_Bucket_3: 486
Non-critical_IP_ROB_Stalls_Bucket_3: 49493
Critical_IP_ROB_Stalls_Bucket_4: 120
Non-critical_IP_ROB_Stalls_Bucket_4: 16240
Critical_IP_ROB_Stalls_Bucket_5: 40
Non-critical_IP_ROB_Stalls_Bucket_5: 7740
Critical_IP_ROB_Stalls_Bucket_6: 36
Non-critical_IP_ROB_Stalls_Bucket_6: 17444
0 => IPs accounting for >50 percent of stalls, 1 => 55, 2 => 60, 3 => 65 and so on till 90.
percent50: inf num IPs:  1
percent55: inf num IPs: 1
percent60: inf num IPs: 1
percent65: inf num IPs: 1
percent70: inf num IPs: 1
percent75: inf num IPs: 1
percent80: inf num IPs: 1
percent85: inf num IPs: 1
percent90: inf num IPs: 1
Critical_ROB_Stalls_Percent_0_Bucket_0: 610467
Non-critical_ROB_Stalls_Percent_0_Bucket_0: 1907648
Critical_ROB_Stalls_Percent_0_Bucket_1: 1129
Non-critical_ROB_Stalls_Percent_0_Bucket_1: 605952
Critical_ROB_Stalls_Percent_0_Bucket_2: 4473
Non-critical_ROB_Stalls_Percent_0_Bucket_2: 238925
Critical_ROB_Stalls_Percent_0_Bucket_3: 0
Non-critical_ROB_Stalls_Percent_0_Bucket_3: 49979
Critical_ROB_Stalls_Percent_0_Bucket_4: 0
Non-critical_ROB_Stalls_Percent_0_Bucket_4: 16360
Critical_ROB_Stalls_Percent_0_Bucket_5: 0
Non-critical_ROB_Stalls_Percent_0_Bucket_5: 7780
Critical_ROB_Stalls_Percent_0_Bucket_6: 0
Non-critical_ROB_Stalls_Percent_0_Bucket_6: 17480
Critical_ROB_Stalls_Percent_1_Bucket_0: 610467
Non-critical_ROB_Stalls_Percent_1_Bucket_0: 1907648
Critical_ROB_Stalls_Percent_1_Bucket_1: 1129
Non-critical_ROB_Stalls_Percent_1_Bucket_1: 605952
Critical_ROB_Stalls_Percent_1_Bucket_2: 4473
Non-critical_ROB_Stalls_Percent_1_Bucket_2: 238925
Critical_ROB_Stalls_Percent_1_Bucket_3: 0
Non-critical_ROB_Stalls_Percent_1_Bucket_3: 49979
Critical_ROB_Stalls_Percent_1_Bucket_4: 0
Non-critical_ROB_Stalls_Percent_1_Bucket_4: 16360
Critical_ROB_Stalls_Percent_1_Bucket_5: 0
Non-critical_ROB_Stalls_Percent_1_Bucket_5: 7780
Critical_ROB_Stalls_Percent_1_Bucket_6: 0
Non-critical_ROB_Stalls_Percent_1_Bucket_6: 17480
Critical_ROB_Stalls_Percent_2_Bucket_0: 610467
Non-critical_ROB_Stalls_Percent_2_Bucket_0: 1907648
Critical_ROB_Stalls_Percent_2_Bucket_1: 1129
Non-critical_ROB_Stalls_Percent_2_Bucket_1: 605952
Critical_ROB_Stalls_Percent_2_Bucket_2: 4473
Non-critical_ROB_Stalls_Percent_2_Bucket_2: 238925
Critical_ROB_Stalls_Percent_2_Bucket_3: 0
Non-critical_ROB_Stalls_Percent_2_Bucket_3: 49979
Critical_ROB_Stalls_Percent_2_Bucket_4: 0
Non-critical_ROB_Stalls_Percent_2_Bucket_4: 16360
Critical_ROB_Stalls_Percent_2_Bucket_5: 0
Non-critical_ROB_Stalls_Percent_2_Bucket_5: 7780
Critical_ROB_Stalls_Percent_2_Bucket_6: 0
Non-critical_ROB_Stalls_Percent_2_Bucket_6: 17480
Critical_ROB_Stalls_Percent_3_Bucket_0: 610467
Non-critical_ROB_Stalls_Percent_3_Bucket_0: 1907648
Critical_ROB_Stalls_Percent_3_Bucket_1: 1129
Non-critical_ROB_Stalls_Percent_3_Bucket_1: 605952
Critical_ROB_Stalls_Percent_3_Bucket_2: 4473
Non-critical_ROB_Stalls_Percent_3_Bucket_2: 238925
Critical_ROB_Stalls_Percent_3_Bucket_3: 0
Non-critical_ROB_Stalls_Percent_3_Bucket_3: 49979
Critical_ROB_Stalls_Percent_3_Bucket_4: 0
Non-critical_ROB_Stalls_Percent_3_Bucket_4: 16360
Critical_ROB_Stalls_Percent_3_Bucket_5: 0
Non-critical_ROB_Stalls_Percent_3_Bucket_5: 7780
Critical_ROB_Stalls_Percent_3_Bucket_6: 0
Non-critical_ROB_Stalls_Percent_3_Bucket_6: 17480
Critical_ROB_Stalls_Percent_4_Bucket_0: 610467
Non-critical_ROB_Stalls_Percent_4_Bucket_0: 1907648
Critical_ROB_Stalls_Percent_4_Bucket_1: 1129
Non-critical_ROB_Stalls_Percent_4_Bucket_1: 605952
Critical_ROB_Stalls_Percent_4_Bucket_2: 4473
Non-critical_ROB_Stalls_Percent_4_Bucket_2: 238925
Critical_ROB_Stalls_Percent_4_Bucket_3: 0
Non-critical_ROB_Stalls_Percent_4_Bucket_3: 49979
Critical_ROB_Stalls_Percent_4_Bucket_4: 0
Non-critical_ROB_Stalls_Percent_4_Bucket_4: 16360
Critical_ROB_Stalls_Percent_4_Bucket_5: 0
Non-critical_ROB_Stalls_Percent_4_Bucket_5: 7780
Critical_ROB_Stalls_Percent_4_Bucket_6: 0
Non-critical_ROB_Stalls_Percent_4_Bucket_6: 17480
Critical_ROB_Stalls_Percent_5_Bucket_0: 610467
Non-critical_ROB_Stalls_Percent_5_Bucket_0: 1907648
Critical_ROB_Stalls_Percent_5_Bucket_1: 1129
Non-critical_ROB_Stalls_Percent_5_Bucket_1: 605952
Critical_ROB_Stalls_Percent_5_Bucket_2: 4473
Non-critical_ROB_Stalls_Percent_5_Bucket_2: 238925
Critical_ROB_Stalls_Percent_5_Bucket_3: 0
Non-critical_ROB_Stalls_Percent_5_Bucket_3: 49979
Critical_ROB_Stalls_Percent_5_Bucket_4: 0
Non-critical_ROB_Stalls_Percent_5_Bucket_4: 16360
Critical_ROB_Stalls_Percent_5_Bucket_5: 0
Non-critical_ROB_Stalls_Percent_5_Bucket_5: 7780
Critical_ROB_Stalls_Percent_5_Bucket_6: 0
Non-critical_ROB_Stalls_Percent_5_Bucket_6: 17480
Critical_ROB_Stalls_Percent_6_Bucket_0: 610467
Non-critical_ROB_Stalls_Percent_6_Bucket_0: 1907648
Critical_ROB_Stalls_Percent_6_Bucket_1: 1129
Non-critical_ROB_Stalls_Percent_6_Bucket_1: 605952
Critical_ROB_Stalls_Percent_6_Bucket_2: 4473
Non-critical_ROB_Stalls_Percent_6_Bucket_2: 238925
Critical_ROB_Stalls_Percent_6_Bucket_3: 0
Non-critical_ROB_Stalls_Percent_6_Bucket_3: 49979
Critical_ROB_Stalls_Percent_6_Bucket_4: 0
Non-critical_ROB_Stalls_Percent_6_Bucket_4: 16360
Critical_ROB_Stalls_Percent_6_Bucket_5: 0
Non-critical_ROB_Stalls_Percent_6_Bucket_5: 7780
Critical_ROB_Stalls_Percent_6_Bucket_6: 0
Non-critical_ROB_Stalls_Percent_6_Bucket_6: 17480
Critical_ROB_Stalls_Percent_7_Bucket_0: 610467
Non-critical_ROB_Stalls_Percent_7_Bucket_0: 1907648
Critical_ROB_Stalls_Percent_7_Bucket_1: 1129
Non-critical_ROB_Stalls_Percent_7_Bucket_1: 605952
Critical_ROB_Stalls_Percent_7_Bucket_2: 4473
Non-critical_ROB_Stalls_Percent_7_Bucket_2: 238925
Critical_ROB_Stalls_Percent_7_Bucket_3: 0
Non-critical_ROB_Stalls_Percent_7_Bucket_3: 49979
Critical_ROB_Stalls_Percent_7_Bucket_4: 0
Non-critical_ROB_Stalls_Percent_7_Bucket_4: 16360
Critical_ROB_Stalls_Percent_7_Bucket_5: 0
Non-critical_ROB_Stalls_Percent_7_Bucket_5: 7780
Critical_ROB_Stalls_Percent_7_Bucket_6: 0
Non-critical_ROB_Stalls_Percent_7_Bucket_6: 17480
Critical_ROB_Stalls_Percent_8_Bucket_0: 610467
Non-critical_ROB_Stalls_Percent_8_Bucket_0: 1907648
Critical_ROB_Stalls_Percent_8_Bucket_1: 1129
Non-critical_ROB_Stalls_Percent_8_Bucket_1: 605952
Critical_ROB_Stalls_Percent_8_Bucket_2: 4473
Non-critical_ROB_Stalls_Percent_8_Bucket_2: 238925
Critical_ROB_Stalls_Percent_8_Bucket_3: 0
Non-critical_ROB_Stalls_Percent_8_Bucket_3: 49979
Critical_ROB_Stalls_Percent_8_Bucket_4: 0
Non-critical_ROB_Stalls_Percent_8_Bucket_4: 16360
Critical_ROB_Stalls_Percent_8_Bucket_5: 0
Non-critical_ROB_Stalls_Percent_8_Bucket_5: 7780
Critical_ROB_Stalls_Percent_8_Bucket_6: 0
Non-critical_ROB_Stalls_Percent_8_Bucket_6: 17480
Average ROB occupancy Load Stall Begin: 35.1551
Average ROB occupancy Load Stall End: 43.1666
Min ROB occupancy Load Stall Begin: 1
Max ROB occupancy Load Stall Begin: 352
Min ROB occupancy Load Stall End: 1
Max ROB occupancy Load Stall End: 352
Average ROB occupancy Critical Load Stall Begin: 49.0109
Average ROB occupancy Critical Load Stall End: 56.2726
Min ROB occupancy Critical Load Stall Begin: 2
Max ROB occupancy Critical Load Stall Begin: 352
Min ROB occupancy Critical Load Stall End: 2
Max ROB occupancy Critical Load Stall End: 352
 ROB Load Stall Begin Bucket Count 0: 2721210
 ROB Load Stall End Bucket Count 0: 2518115
 ROB Critical Load Stall Begin Bucket Count 0: 1991
 ROB Critical Load Stall End Bucket Count 0: 1906
 ROB Load Stall Begin Bucket Count 1: 483707
 ROB Load Stall End Bucket Count 1: 607081
 ROB Critical Load Stall Begin Bucket Count 1: 373
 ROB Critical Load Stall End Bucket Count 1: 413
 ROB Load Stall Begin Bucket Count 2: 183954
 ROB Load Stall End Bucket Count 2: 243398
 ROB Critical Load Stall Begin Bucket Count 2: 208
 ROB Critical Load Stall End Bucket Count 2: 209
 ROB Load Stall Begin Bucket Count 3: 34504
 ROB Load Stall End Bucket Count 3: 49979
 ROB Critical Load Stall Begin Bucket Count 3: 106
 ROB Critical Load Stall End Bucket Count 3: 131
 ROB Load Stall Begin Bucket Count 4: 13173
 ROB Load Stall End Bucket Count 4: 16360
 ROB Critical Load Stall Begin Bucket Count 4: 37
 ROB Critical Load Stall End Bucket Count 4: 50
 ROB Load Stall Begin Bucket Count 5: 6995
 ROB Load Stall End Bucket Count 5: 7780
 ROB Critical Load Stall Begin Bucket Count 5: 10
 ROB Critical Load Stall End Bucket Count 5: 17
 ROB Load Stall Begin Bucket Count 6: 16651
 ROB Load Stall End Bucket Count 6: 17480
 ROB Critical Load Stall Begin Bucket Count 6: 30
 ROB Critical Load Stall End Bucket Count 6: 31
PIST Tag Read Accesses: 0
PIST Read Accesses: 0
PIST Tag Write Accesses: 0
PIST Write Accesses: 0
Criticality detector called times: 0
Max global_stall_cycles_count: 0
Threshold Modified: 0 times, factor: 0
Sturdy critical IP cache stats: 
 Unused entries: 0
CIC Tag Read Accesses: 0
CIC Read Accesses: 0
CIC Tag Write Accesses: 0
CIC Write Accesses: 0
Wobbly critical IP cache stats: 
 Unused entries: 0
CIC Tag Read Accesses: 129147317
CIC Read Accesses: 0
CIC Tag Write Accesses: 230566
CIC Write Accesses: 0
ITLB TOTAL     ACCESS:   10319962  HIT:    9805781  MISS:     514181  HIT %:    95.0176  MISS %:    4.98239   MPKI: 10.2836
ITLB LOAD TRANSLATION ACCESS:    8796170  HIT:    8721952  MISS:      74218  HIT %:    99.1562  MISS %:   0.843754   MPKI: 1.48436
ITLB TRANSLATION FROM L1D PREFETCHER ACCESS:    1523792  HIT:    1083829  MISS:     439963  HIT %:    71.1271  MISS %:    28.8729   MPKI: 8.79926
ITLB PREFETCH  REQUESTED:          0  ISSUED:          0  USEFUL:     343462  USELESS:      96501
ITLB USEFUL LOAD PREFETCHES:     343462 PREFETCH ISSUED TO LOWER LEVEL:          0  ACCURACY: inf
ITLB TIMELY PREFETCHES:     343462 LATE PREFETCHES: 197 DROPPED PREFETCHES: 2836
ITLB PREFETCHES SAME FILL-ORIGIN LEVEL: 0 DIFFERENT FILL-ORIGIN LEVEL: 0
ITLB AVERAGE MISS LATENCY: 25225.3 cycles
ITLB RQ	ACCESS:   14215491	FORWARD:          0	MERGED:    3858981	TO_CACHE:   10356510

DTLB TOTAL     ACCESS:   10173707  HIT:    9790155  MISS:     383552  HIT %:      96.23  MISS %:    3.77003   MPKI: 7.67104
DTLB LOAD TRANSLATION ACCESS:   10173707  HIT:    9790155  MISS:     383552  HIT %:      96.23  MISS %:    3.77003   MPKI: 7.67104
DTLB PREFETCH  REQUESTED:          0  ISSUED:          0  USEFUL:          0  USELESS:          0
DTLB USEFUL LOAD PREFETCHES:          0 PREFETCH ISSUED TO LOWER LEVEL:          0  ACCURACY: -nan
DTLB TIMELY PREFETCHES:          0 LATE PREFETCHES: 0 DROPPED PREFETCHES: 0
DTLB PREFETCHES SAME FILL-ORIGIN LEVEL: 0 DIFFERENT FILL-ORIGIN LEVEL: 0
DTLB AVERAGE MISS LATENCY: 9.3977 cycles
DTLB RQ	ACCESS:   13086484	FORWARD:          0	MERGED:    2890933	TO_CACHE:   10195551

STLB TOTAL     ACCESS:     901170  HIT:     899137  MISS:       2033  HIT %:    99.7744  MISS %:   0.225596   MPKI: 0.04066
STLB LOAD TRANSLATION ACCESS:     457573  HIT:     455687  MISS:       1886  HIT %:    99.5878  MISS %:   0.412175   MPKI: 0.03772
STLB TRANSLATION FROM L1D PREFETCHER ACCESS:     443597  HIT:     443450  MISS:        147  HIT %:    99.9669  MISS %:  0.0331382   MPKI: 0.00294
STLB PREFETCH  REQUESTED:          0  ISSUED:          0  USEFUL:        131  USELESS:         16
STLB USEFUL LOAD PREFETCHES:        131 PREFETCH ISSUED TO LOWER LEVEL:          0  ACCURACY: inf
STLB TIMELY PREFETCHES:        131 LATE PREFETCHES: 0 DROPPED PREFETCHES: 2836
STLB PREFETCHES SAME FILL-ORIGIN LEVEL: 0 DIFFERENT FILL-ORIGIN LEVEL: 0
STLB AVERAGE MISS LATENCY: 80.4078 cycles
STLB RQ	ACCESS:     905197	FORWARD:          0	MERGED:       1191	TO_CACHE:     904006

STLB Hit, L1D data hit: 0
STLB Hit, L2C data hit: 0
STLB Hit, LLC data hit: 0
STLB Hit, LLC data miss: 0
STLB STLB hints to L2: 0
L1D TOTAL     ACCESS:   12681175  HIT:   11850879  MISS:     830296  HIT %:    93.4525  MISS %:    6.54747   MPKI: 16.6059
L1D LOAD      ACCESS:    7412154  HIT:    6812312  MISS:     599842  HIT %:    91.9073  MISS %:    8.09268   MPKI: 11.9968
L1D RFO       ACCESS:    5265487  HIT:    5037984  MISS:     227503  HIT %:    95.6794  MISS %:    4.32064   MPKI: 4.55006
L1D PREFETCH  ACCESS:       3534  HIT:        583  MISS:       2951  HIT %:    16.4969  MISS %:    83.5031   MPKI: 0.05902
L1D PREFETCH  REQUESTED:       9256  ISSUED:       9256  USEFUL:       1665  USELESS:       1420
L1D USEFUL LOAD PREFETCHES:       1665 PREFETCH ISSUED TO LOWER LEVEL:       3756  ACCURACY: 44.3291
L1D TIMELY PREFETCHES:       1665 LATE PREFETCHES: 804 DROPPED PREFETCHES: 0
L1D PREFETCHES SAME FILL-ORIGIN LEVEL: 3756 DIFFERENT FILL-ORIGIN LEVEL: 0
L1D AVERAGE MISS LATENCY: 66994.3 cycles
L1D RQ	ACCESS:   10322388	FORWARD:          0	MERGED:    2769784	TO_CACHE:    7444951
L1D WQ	ACCESS:    5697707	FORWARD:     107653	MERGED:      56174	TO_CACHE:    5641533
L1D PQ	ACCESS:       4628	FORWARD:          0	MERGED:          0	TO_CACHE:       4628

L1D UNIQUE REGIONS ACCESSED: 0
L1D REGIONS CONFLICTS: 0
L1D Cross Page Prefetch Requests: 0
L1D Same Page Prefetch Requests: 2676800
L1D ROI Sum of L1D PQ occupancy: 67182
L1D PREFETCHES PUSHED FROM L2C: 0
L1I TOTAL     ACCESS:   14094551  HIT:   10969736  MISS:    3124815  HIT %:    77.8296  MISS %:    22.1704   MPKI: 62.4963
L1I LOAD      ACCESS:    9939357  HIT:    9709985  MISS:     229372  HIT %:    97.6923  MISS %:    2.30771   MPKI: 4.58744
L1I PREFETCH  ACCESS:    4155194  HIT:    1259751  MISS:    2895443  HIT %:    30.3175  MISS %:    69.6825   MPKI: 57.9089
L1I PREFETCH  REQUESTED:    4364031  ISSUED:    4350428  USEFUL:    1949196  USELESS:     946167
L1I USEFUL LOAD PREFETCHES:    1949196 PREFETCH ISSUED TO LOWER LEVEL:    2921325  ACCURACY: 66.723
L1I TIMELY PREFETCHES:    1949196 LATE PREFETCHES: 25882 DROPPED PREFETCHES: 6832
L1I PREFETCHES SAME FILL-ORIGIN LEVEL: 2921325 DIFFERENT FILL-ORIGIN LEVEL: 0
L1I AVERAGE MISS LATENCY: 498058 cycles
L1I RQ	ACCESS:   13364378	FORWARD:          0	MERGED:    3404836	TO_CACHE:    9959542
L1I PQ	ACCESS:    4350428	FORWARD:          0	MERGED:      94479	TO_CACHE:    4255949

BTB TOTAL     ACCESS:    6534034  HIT:    5095597  MISS:    1438437  HIT %:    77.9855  MISS %:    22.0145   MPKI: 28.7687
BTB BRANCH_DIRECT_JUMP	ACCESS:     487044  HIT:     364834  MISS:     122210
BTB BRANCH_INDIRECT	ACCESS:     169158  HIT:     142414  MISS:      26744
BTB BRANCH_CONDITIONAL	ACCESS:    4098719  HIT:    3717570  MISS:     381149
BTB BRANCH_DIRECT_CALL	ACCESS:     755585  HIT:     471450  MISS:     284135
BTB BRANCH_INDIRECT_CALL	ACCESS:     133962  HIT:      76124  MISS:      57838
BTB BRANCH_RETURN	ACCESS:     889566  HIT:     323205  MISS:     566361
BTB BRANCH_OTHER ACCESS:          0  HIT:          0  MISS:          0

L2C TOTAL     ACCESS:    5177247  HIT:    4521217  MISS:     656030  HIT %:    87.3286  MISS %:    12.6714   MPKI: 13.1206
L2C LOAD      ACCESS:     802473  HIT:     615416  MISS:     187057  HIT %:    76.6899  MISS %:    23.3101   MPKI: 3.74114
L2C DATA LOAD MPKI: 3.03808
L2C INSTRUCTION LOAD MPKI: 0.70306
L2C RFO       ACCESS:     227496  HIT:     163413  MISS:      64083  HIT %:    71.8312  MISS %:    28.1688   MPKI: 1.28166
L2C PREFETCH  ACCESS:    3753620  HIT:    3379189  MISS:     374431  HIT %:    90.0248  MISS %:     9.9752   MPKI: 7.48862
L2C DATA PREFETCH MPKI: 1.80992
L2C INSTRUCTION PREFETCH MPKI: 5.6787
L2C WRITEBACK ACCESS:     386604  HIT:     358026  MISS:      28578  HIT %:    92.6079  MISS %:    7.39206   MPKI: 0.57156
L2C LOAD TRANSLATION ACCESS:       2108  HIT:        507  MISS:       1601  HIT %:    24.0512  MISS %:    75.9488   MPKI: 0.03202
L2C TRANSLATION FROM L1D PREFETCHER ACCESS:       4946  HIT:       4666  MISS:        280  HIT %:    94.3389  MISS %:    5.66114   MPKI: 0.0056
L2C PREFETCH  REQUESTED:    2266531  ISSUED:    2266531  USEFUL:       9580  USELESS:     364229
L2C USEFUL LOAD PREFETCHES:       9580 PREFETCH ISSUED TO LOWER LEVEL:     374594  ACCURACY: 2.55744
L2C TIMELY PREFETCHES:       9580 LATE PREFETCHES: 163 DROPPED PREFETCHES: 0
L2C PREFETCHES SAME FILL-ORIGIN LEVEL: 89826 DIFFERENT FILL-ORIGIN LEVEL: 0
L2C AVERAGE MISS LATENCY: 35.1154 cycles
L2C RQ	ACCESS:    1037084	FORWARD:          0	MERGED:          0	TO_CACHE:    1037023
L2C WQ	ACCESS:     386604	FORWARD:         61	MERGED:          0	TO_CACHE:     386604
L2C PQ	ACCESS:    5191612	FORWARD:          0	MERGED:    1433169	TO_CACHE:    3758443

L2C Instructions Evicting Data 157920
L2C Translations Evicting Data 1244
L2C Data Evicting Data 163297
L2C Instructions Evicting Instructions 160483
L2C Translations Evicting Instructions 621
L2C Data Evicting Instructions 142003
L2C Instructions Evicting Translations 685
L2C Translations Evicting Translations 16
L2C Data Evicting Translations 1183
L2C Dense regions hint from L2: 0
PSCL5 TOTAL     ACCESS:       4869  HIT:       4869  MISS:          0  HIT %:        100  MISS %:          0   MPKI: 0
PSCL5 LOAD TRANSLATION ACCESS:       1886  HIT:       1886  MISS:          0  HIT %:        100  MISS %:          0   MPKI: 0
PSCL5 TRANSLATION FROM L1D PREFETCHER ACCESS:       2983  HIT:       2983  MISS:          0  HIT %:        100  MISS %:          0   MPKI: 0
PSCL5 PREFETCH  REQUESTED:          0  ISSUED:          0  USEFUL:          0  USELESS:          0
PSCL5 USEFUL LOAD PREFETCHES:          0 PREFETCH ISSUED TO LOWER LEVEL:          0  ACCURACY: -nan
PSCL5 TIMELY PREFETCHES:          0 LATE PREFETCHES: 0 DROPPED PREFETCHES: 0
PSCL5 PREFETCHES SAME FILL-ORIGIN LEVEL: 0 DIFFERENT FILL-ORIGIN LEVEL: 0

PSCL4 TOTAL     ACCESS:       4566  HIT:       4552  MISS:         14  HIT %:    99.6934  MISS %:   0.306614   MPKI: 0.00028
PSCL4 LOAD TRANSLATION ACCESS:       1670  HIT:       1656  MISS:         14  HIT %:    99.1617  MISS %:   0.838323   MPKI: 0.00028
PSCL4 TRANSLATION FROM L1D PREFETCHER ACCESS:       2896  HIT:       2896  MISS:          0  HIT %:        100  MISS %:          0   MPKI: 0
PSCL4 PREFETCH  REQUESTED:          0  ISSUED:          0  USEFUL:          0  USELESS:          0
PSCL4 USEFUL LOAD PREFETCHES:          0 PREFETCH ISSUED TO LOWER LEVEL:          0  ACCURACY: -nan
PSCL4 TIMELY PREFETCHES:          0 LATE PREFETCHES: 0 DROPPED PREFETCHES: 0
PSCL4 PREFETCHES SAME FILL-ORIGIN LEVEL: 0 DIFFERENT FILL-ORIGIN LEVEL: 0

PSCL3 TOTAL     ACCESS:       4740  HIT:       4726  MISS:         14  HIT %:    99.7046  MISS %:   0.295359   MPKI: 0.00028
PSCL3 LOAD TRANSLATION ACCESS:       1844  HIT:       1830  MISS:         14  HIT %:    99.2408  MISS %:   0.759219   MPKI: 0.00028
PSCL3 TRANSLATION FROM L1D PREFETCHER ACCESS:       2896  HIT:       2896  MISS:          0  HIT %:        100  MISS %:          0   MPKI: 0
PSCL3 PREFETCH  REQUESTED:          0  ISSUED:          0  USEFUL:          0  USELESS:          0
PSCL3 USEFUL LOAD PREFETCHES:          0 PREFETCH ISSUED TO LOWER LEVEL:          0  ACCURACY: -nan
PSCL3 TIMELY PREFETCHES:          0 LATE PREFETCHES: 0 DROPPED PREFETCHES: 0
PSCL3 PREFETCHES SAME FILL-ORIGIN LEVEL: 0 DIFFERENT FILL-ORIGIN LEVEL: 0

PSCL2 TOTAL     ACCESS:       3048  HIT:       2818  MISS:        230  HIT %:    92.4541  MISS %:    7.54593   MPKI: 0.0046
PSCL2 LOAD TRANSLATION ACCESS:       1916  HIT:       1686  MISS:        230  HIT %:    87.9958  MISS %:    12.0042   MPKI: 0.0046
PSCL2 TRANSLATION FROM L1D PREFETCHER ACCESS:       1132  HIT:       1132  MISS:          0  HIT %:        100  MISS %:          0   MPKI: 0
PSCL2 PREFETCH  REQUESTED:          0  ISSUED:          0  USEFUL:          0  USELESS:          0
PSCL2 USEFUL LOAD PREFETCHES:          0 PREFETCH ISSUED TO LOWER LEVEL:          0  ACCURACY: -nan
PSCL2 TIMELY PREFETCHES:          0 LATE PREFETCHES: 0 DROPPED PREFETCHES: 0
PSCL2 PREFETCHES SAME FILL-ORIGIN LEVEL: 0 DIFFERENT FILL-ORIGIN LEVEL: 0

LLC TOTAL     ACCESS:     723045  HIT:     695724  MISS:      27321  HIT %:    96.2214  MISS %:     3.7786   MPKI: 0.54642
LLC LOAD      ACCESS:     186892  HIT:     175960  MISS:      10932  HIT %:    94.1506  MISS %:    5.84937   MPKI: 0.21864
LLC RFO       ACCESS:      64083  HIT:      49500  MISS:      14583  HIT %:    77.2436  MISS %:    22.7564   MPKI: 0.29166
LLC PREFETCH  ACCESS:     374594  HIT:     373249  MISS:       1345  HIT %:    99.6409  MISS %:   0.359055   MPKI: 0.0269
LLC WRITEBACK ACCESS:      95595  HIT:      95304  MISS:        291  HIT %:    99.6956  MISS %:   0.304409   MPKI: 0.00582
LLC LOAD TRANSLATION ACCESS:       1601  HIT:       1451  MISS:        150  HIT %:    90.6309  MISS %:    9.36914   MPKI: 0.003
LLC TRANSLATION FROM L1D PREFETCHER ACCESS:        280  HIT:        260  MISS:         20  HIT %:    92.8571  MISS %:    7.14286   MPKI: 0.0004
LLC PREFETCH  REQUESTED:          0  ISSUED:          0  USEFUL:        953  USELESS:       6298
LLC USEFUL LOAD PREFETCHES:        953 PREFETCH ISSUED TO LOWER LEVEL:       1345  ACCURACY: 70.855
LLC TIMELY PREFETCHES:        953 LATE PREFETCHES: 0 DROPPED PREFETCHES: 0
LLC PREFETCHES SAME FILL-ORIGIN LEVEL: 0 DIFFERENT FILL-ORIGIN LEVEL: 0
LLC AVERAGE MISS LATENCY: 152.946 cycles
LLC RQ	ACCESS:     252858	FORWARD:          0	MERGED:          0	TO_CACHE:     252856
LLC WQ	ACCESS:      95595	FORWARD:          2	MERGED:          0	TO_CACHE:      95595
LLC PQ	ACCESS:     374594	FORWARD:          0	MERGED:          0	TO_CACHE:     374594

LLC Dense regions hint to LLC: 0

RAW hits: 809922
Loads Generated: 11132312
Loads sent to L1D: 10322388
Stores Generated: 5697707
Stores sent to L1D: 5697707
Major fault: 0 Minor fault: 2472
Allocated PAGES: 2472
I-Shadow cache 408 bytes
Touched + WorthPF tables 6144 bytes 
MMA filter 174 bytes 
FNL filter 272 bytes 
TOTAL PREFETCHER STORAGE SIZE: 25174 bytes
CPU 0 L1I next line prefetcher final stats

stream: 
stream:times selected: 1613864
stream:pref_filled: 32195
stream:pref_useful: 7783
stream:pref_late: 3447
stream:misses: 2854
stream:misses_by_poll: 0

CS: 
CS:times selected: 1291348
CS:pref_filled: 14872
CS:pref_useful: 10885
CS:pref_late: 1280
CS:misses: 3305
CS:misses_by_poll: 7

CPLX: 
CPLX:times selected: 321714
CPLX:pref_filled: 57300
CPLX:pref_useful: 27443
CPLX:pref_late: 1738
CPLX:misses: 26414
CPLX:misses_by_poll: 1

NL_L1: 
NL:times selected: 2078
NL:pref_filled: 90
NL:pref_useful: 20
NL:pref_late: 11
NL:misses: 102
NL:misses_by_poll: 0

total selections: 3229004
total_filled: 2951
total_useful: 1665
total_late: 7075
total_polluted: 8
total_misses_after_warmup: 1664
conflicts: 1408
Degree Incremented Times: 0
Degree Decremented Times: 24410

L1 IP Table Write Accesses: 41796
L1 IP Table Read Accesses: 40388
L1 RST Write Accesses: 4292
L1 RST Read Accesses: 8584
L1 CSPT Write Accesses: 4292
L1 CSPT Read Accesses: 10399
L1 RR Filter Tag Write Accesses: 4628
L1 RR Filter Tag Read Accesses: 330788
L1 IP Table Tag Write Accesses: 43291
L1 IP Table Tag Read Accesses: 43291
L1 RST Tag Write Accesses: 0
L1 RST Tag Read Accesses: 36289
L1 RR Filter Write Accesses: 0
L1 RR Filter Read Accesses: 10937
test: 83760
L2 IP Table Read Accesses: 2314741
L2 IP Table Write Accesses: 4616465
L2 IP Table Tag Read Accesses: 2309159
L2 IP Table Tag Write Accesses: 2309159

DRAM Statistics
 CHANNEL 0
 RQ ROW_BUFFER_HIT:      10048  ROW_BUFFER_MISS:      16972
 DBUS_CONGESTED:          1
 WQ ROW_BUFFER_HIT:       1323  ROW_BUFFER_MISS:      11291  FULL:          0

 AVG_CONGESTED_CYCLE: 4
 All warmup complete: 2
Channel 0 Bank busy for read cycles: 0
Channel 0 Bank busy for write cycles: 0
Channel 0
Rank 0
0banks busy for read cycles: 75599802
0banks busy for write cycles: 3121
1banks busy for read cycles: 1359184
1banks busy for write cycles: 454094
2banks busy for read cycles: 152831
2banks busy for write cycles: 159569
3banks busy for read cycles: 58835
3banks busy for write cycles: 119388
4banks busy for read cycles: 32236
4banks busy for write cycles: 91240
5banks busy for read cycles: 25004
5banks busy for write cycles: 85620
6banks busy for read cycles: 28223
6banks busy for write cycles: 62427
7banks busy for read cycles: 32883
7banks busy for write cycles: 50202
8banks busy for read cycles: 71039
8banks busy for write cycles: 71695

CPU 0 Branch Prediction Accuracy: 99.7225% MPKI: 0.50376 Average ROB Occupancy at Mispredict: 61.0731
Branch types
NOT_BRANCH: 40923872 81.8477%
BRANCH_DIRECT_JUMP: 487044 0.974088%
BRANCH_INDIRECT: 169158 0.338316%
BRANCH_CONDITIONAL: 6640823 13.2816%
BRANCH_DIRECT_CALL: 755585 1.51117%
BRANCH_INDIRECT_CALL: 133962 0.267924%
BRANCH_RETURN: 889566 1.77913%
BRANCH_OTHER: 0 0%

DRAM PAGES: 1048576
Allocated PAGES: 2472
