Initialize SIGNATURE TABLE
ST_SET: 1
ST_WAY: 256
ST_TAG_BIT: 16
ST_TAG_MASK: ffff

Initialize PATTERN TABLE
PT_SET: 512
PT_WAY: 4
SIG_DELTA_BIT: 7
C_SIG_BIT: 4
C_DELTA_BIT: 4

Initialize PREFETCH FILTER
FILTER_SET: 1024

Initialize PERCEPTRON
PERC_ENTRIES: 4096
PERC_FEATURES: 9

*** ChampSim Multicore Out-of-Order Simulator ***

Warmup Instructions: 50000000
Simulation Instructions: 50000000
Number of CPUs: 1
LLC sets: 2048
LLC ways: 16
Off-chip DRAM Size: 4096 MB Channels: 1 Width: 64-bit Data Rate: 6400 MT/s
CPU 0 runs ../IPC-traces//server_004.champsimtrace.xz
.xz
NUM_OF_IPS_IN_CRITICAL_IP_TRAINING: 64
NUM_OF_CRITICAL_IP_TRAINING_TABLE_WAYS: 2
NUM_OF_CRITICAL_IP_TRAINING_TABLE_SETS: 32
WOBBLY_CRITICAL_IP_CACHE_SETS: 32
WOBBLY_CRITICAL_IP_CACHE_WAYS: 4
BTB has LRU replacement policy
ITLB has LRU replacement policy
DTLB has LRU replacement policy
STLB has LRU replacement policy
CPU 0 L1I next line prefetcher
L1I has LRU replacement policy
L1D has LRU replacement policy
Initialize SRRIP state for L2C
Initialize DRRIP state for LLC
Heartbeat CPU 0 instructions: 10000002 cycles: 2778198 heartbeat IPC: 3.59946 cumulative IPC: 3.59946 (Simulation time: 0 hr 3 min 16 sec) 
Heartbeat CPU 0 instructions: 20000002 cycles: 5594283 heartbeat IPC: 3.55103 cumulative IPC: 3.57508 (Simulation time: 0 hr 5 min 45 sec) 
Heartbeat CPU 0 instructions: 30000000 cycles: 9734778 heartbeat IPC: 2.41517 cumulative IPC: 3.08173 (Simulation time: 0 hr 9 min 6 sec) 
Heartbeat CPU 0 instructions: 40000003 cycles: 12877289 heartbeat IPC: 3.18217 cumulative IPC: 3.10624 (Simulation time: 0 hr 11 min 25 sec) 
Heartbeat CPU 0 instructions: 50000003 cycles: 15647426 heartbeat IPC: 3.60993 cumulative IPC: 3.19541 (Simulation time: 0 hr 13 min 22 sec) 

Warmup complete CPU 0 instructions: 50000003 cycles: 15647426 (Simulation time: 0 hr 13 min 22 sec) 

% increase in all ip prefetch 378.473
% increase in all ip prefetch -13.3925
Heartbeat CPU 0 instructions: 60000002 cycles: 31098926 heartbeat IPC: 0.647186 cumulative IPC: 0.647186 (Simulation time: 0 hr 15 min 56 sec) 
Heartbeat CPU 0 instructions: 70000000 cycles: 46084675 heartbeat IPC: 0.667301 cumulative IPC: 0.65709 (Simulation time: 0 hr 18 min 26 sec) 
Heartbeat CPU 0 instructions: 80000001 cycles: 73958998 heartbeat IPC: 0.358753 cumulative IPC: 0.514478 (Simulation time: 0 hr 22 min 15 sec) 
Heartbeat CPU 0 instructions: 90000000 cycles: 97218802 heartbeat IPC: 0.429926 cumulative IPC: 0.490368 (Simulation time: 0 hr 24 min 59 sec) 
Heartbeat CPU 0 instructions: 100000002 cycles: 112953317 heartbeat IPC: 0.635546 cumulative IPC: 0.513843 (Simulation time: 0 hr 28 min 9 sec) 
Finished CPU 0 instructions: 50000000 cycles: 97305893 cumulative IPC: 0.513843 (Simulation time: 0 hr 28 min 9 sec) 

ChampSim completed all CPUs

Region of Interest Statistics

CPU 0 cumulative IPC: 0.513843 instructions: 50000000 cycles: 97305893

CPU 0 Average Load ROB stall cycles: 3.21165e+07
CPU 0 Fraction of times ROB stalled by Loads: 49.5059
CPU 0 Percentage of Load stall cycles in Total stall cycles: 3.17768e+08
Issued all: 35760527
Issued LT all: 30399391
rob_not_full_when_issued_lt_all: 21619582
Issued LT one: 24222535
rob_not_full_when_issued_lt_one: 16262906
 Total stall cycles: 82192113
 Total load stall cycles: 261180415044797
CPU 0 NUM of IPS identified critical: 0
CPU 0 Num of Load IPs stalling ROB: 46574
Threshold modification factor: -1
Max PIST entries: 64
Min PIST entries: 0
Avg PIST entries: 31.56
Trouble in retire width: 0.94695
MaC = Marked as critical.
lt_50_percent_before_Mac: 0
gt_90_percent_before_Mac: 0
gt_75_percent_before_Mac: 0
gt_50_percent_before_Mac: 0
stall_proportion_bin_same_before_after: 0
stall_proportion_bin_lower_before_after: 0
stall_proportion_bin_upper_before_after: 0
average_stall_proportion_before: -nan
average_stall_proportion_after: -nan
Critical IP stalls, total frequency: 0
Non-critical IP stalls, total frequency: 4025955
Total Freq all stalling IPs: 4025955
stat_90_percent_critical_ip_stalls_freq: 3623361
stat_90_percent_non_critical_ip_stalls_freq: 402594
Critical_IP_ROB_Stalls_Bucket_0: 0
Non-critical_IP_ROB_Stalls_Bucket_0: 1432570
Critical_IP_ROB_Stalls_Bucket_1: 0
Non-critical_IP_ROB_Stalls_Bucket_1: 774484
Critical_IP_ROB_Stalls_Bucket_2: 0
Non-critical_IP_ROB_Stalls_Bucket_2: 403952
Critical_IP_ROB_Stalls_Bucket_3: 0
Non-critical_IP_ROB_Stalls_Bucket_3: 285047
Critical_IP_ROB_Stalls_Bucket_4: 0
Non-critical_IP_ROB_Stalls_Bucket_4: 234945
Critical_IP_ROB_Stalls_Bucket_5: 0
Non-critical_IP_ROB_Stalls_Bucket_5: 233795
Critical_IP_ROB_Stalls_Bucket_6: 0
Non-critical_IP_ROB_Stalls_Bucket_6: 661162
0 => IPs accounting for >50 percent of stalls, 1 => 55, 2 => 60, 3 => 65 and so on till 90.
percent50: 50.0625 num IPs:  71
percent55: 55.0969 num IPs: 109
percent60: 60.0021 num IPs: 179
percent65: 65.0221 num IPs: 336
percent70: 70.0113 num IPs: 637
percent75: 75.0036 num IPs: 1105
percent80: 80.001 num IPs: 1827
percent85: 85.0021 num IPs: 3172
percent90: 90.0004 num IPs: 5787
Critical_ROB_Stalls_Percent_0_Bucket_0: 290485
Non-critical_ROB_Stalls_Percent_0_Bucket_0: 1142085
Critical_ROB_Stalls_Percent_0_Bucket_1: 244194
Non-critical_ROB_Stalls_Percent_0_Bucket_1: 530290
Critical_ROB_Stalls_Percent_0_Bucket_2: 216879
Non-critical_ROB_Stalls_Percent_0_Bucket_2: 187073
Critical_ROB_Stalls_Percent_0_Bucket_3: 219617
Non-critical_ROB_Stalls_Percent_0_Bucket_3: 65430
Critical_ROB_Stalls_Percent_0_Bucket_4: 203138
Non-critical_ROB_Stalls_Percent_0_Bucket_4: 31807
Critical_ROB_Stalls_Percent_0_Bucket_5: 215112
Non-critical_ROB_Stalls_Percent_0_Bucket_5: 18683
Critical_ROB_Stalls_Percent_0_Bucket_6: 626067
Non-critical_ROB_Stalls_Percent_0_Bucket_6: 35095
Critical_ROB_Stalls_Percent_1_Bucket_0: 390186
Non-critical_ROB_Stalls_Percent_1_Bucket_0: 1042384
Critical_ROB_Stalls_Percent_1_Bucket_1: 315707
Non-critical_ROB_Stalls_Percent_1_Bucket_1: 458777
Critical_ROB_Stalls_Percent_1_Bucket_2: 238385
Non-critical_ROB_Stalls_Percent_1_Bucket_2: 165567
Critical_ROB_Stalls_Percent_1_Bucket_3: 223433
Non-critical_ROB_Stalls_Percent_1_Bucket_3: 61614
Critical_ROB_Stalls_Percent_1_Bucket_4: 204847
Non-critical_ROB_Stalls_Percent_1_Bucket_4: 30098
Critical_ROB_Stalls_Percent_1_Bucket_5: 216290
Non-critical_ROB_Stalls_Percent_1_Bucket_5: 17505
Critical_ROB_Stalls_Percent_1_Bucket_6: 629327
Non-critical_ROB_Stalls_Percent_1_Bucket_6: 31835
Critical_ROB_Stalls_Percent_2_Bucket_0: 468215
Non-critical_ROB_Stalls_Percent_2_Bucket_0: 964355
Critical_ROB_Stalls_Percent_2_Bucket_1: 389961
Non-critical_ROB_Stalls_Percent_2_Bucket_1: 384523
Critical_ROB_Stalls_Percent_2_Bucket_2: 262942
Non-critical_ROB_Stalls_Percent_2_Bucket_2: 141010
Critical_ROB_Stalls_Percent_2_Bucket_3: 232202
Non-critical_ROB_Stalls_Percent_2_Bucket_3: 52845
Critical_ROB_Stalls_Percent_2_Bucket_4: 208758
Non-critical_ROB_Stalls_Percent_2_Bucket_4: 26187
Critical_ROB_Stalls_Percent_2_Bucket_5: 218207
Non-critical_ROB_Stalls_Percent_2_Bucket_5: 15588
Critical_ROB_Stalls_Percent_2_Bucket_6: 635371
Non-critical_ROB_Stalls_Percent_2_Bucket_6: 25791
Critical_ROB_Stalls_Percent_3_Bucket_0: 559302
Non-critical_ROB_Stalls_Percent_3_Bucket_0: 873268
Critical_ROB_Stalls_Percent_3_Bucket_1: 450494
Non-critical_ROB_Stalls_Percent_3_Bucket_1: 323990
Critical_ROB_Stalls_Percent_3_Bucket_2: 290859
Non-critical_ROB_Stalls_Percent_3_Bucket_2: 113093
Critical_ROB_Stalls_Percent_3_Bucket_3: 241747
Non-critical_ROB_Stalls_Percent_3_Bucket_3: 43300
Critical_ROB_Stalls_Percent_3_Bucket_4: 213115
Non-critical_ROB_Stalls_Percent_3_Bucket_4: 21830
Critical_ROB_Stalls_Percent_3_Bucket_5: 221115
Non-critical_ROB_Stalls_Percent_3_Bucket_5: 12680
Critical_ROB_Stalls_Percent_3_Bucket_6: 641128
Non-critical_ROB_Stalls_Percent_3_Bucket_6: 20034
Critical_ROB_Stalls_Percent_4_Bucket_0: 655729
Non-critical_ROB_Stalls_Percent_4_Bucket_0: 776841
Critical_ROB_Stalls_Percent_4_Bucket_1: 512100
Non-critical_ROB_Stalls_Percent_4_Bucket_1: 262384
Critical_ROB_Stalls_Percent_4_Bucket_2: 315224
Non-critical_ROB_Stalls_Percent_4_Bucket_2: 88728
Critical_ROB_Stalls_Percent_4_Bucket_3: 249774
Non-critical_ROB_Stalls_Percent_4_Bucket_3: 35273
Critical_ROB_Stalls_Percent_4_Bucket_4: 216913
Non-critical_ROB_Stalls_Percent_4_Bucket_4: 18032
Critical_ROB_Stalls_Percent_4_Bucket_5: 223525
Non-critical_ROB_Stalls_Percent_4_Bucket_5: 10270
Critical_ROB_Stalls_Percent_4_Bucket_6: 645358
Non-critical_ROB_Stalls_Percent_4_Bucket_6: 15804
Critical_ROB_Stalls_Percent_5_Bucket_0: 755406
Non-critical_ROB_Stalls_Percent_5_Bucket_0: 677164
Critical_ROB_Stalls_Percent_5_Bucket_1: 576761
Non-critical_ROB_Stalls_Percent_5_Bucket_1: 197723
Critical_ROB_Stalls_Percent_5_Bucket_2: 333390
Non-critical_ROB_Stalls_Percent_5_Bucket_2: 70562
Critical_ROB_Stalls_Percent_5_Bucket_3: 256912
Non-critical_ROB_Stalls_Percent_5_Bucket_3: 28135
Critical_ROB_Stalls_Percent_5_Bucket_4: 221019
Non-critical_ROB_Stalls_Percent_5_Bucket_4: 13926
Critical_ROB_Stalls_Percent_5_Bucket_5: 226332
Non-critical_ROB_Stalls_Percent_5_Bucket_5: 7463
Critical_ROB_Stalls_Percent_5_Bucket_6: 649788
Non-critical_ROB_Stalls_Percent_5_Bucket_6: 11374
Critical_ROB_Stalls_Percent_6_Bucket_0: 875033
Non-critical_ROB_Stalls_Percent_6_Bucket_0: 557537
Critical_ROB_Stalls_Percent_6_Bucket_1: 629706
Non-critical_ROB_Stalls_Percent_6_Bucket_1: 144778
Critical_ROB_Stalls_Percent_6_Bucket_2: 349496
Non-critical_ROB_Stalls_Percent_6_Bucket_2: 54456
Critical_ROB_Stalls_Percent_6_Bucket_3: 262711
Non-critical_ROB_Stalls_Percent_6_Bucket_3: 22336
Critical_ROB_Stalls_Percent_6_Bucket_4: 223872
Non-critical_ROB_Stalls_Percent_6_Bucket_4: 11073
Critical_ROB_Stalls_Percent_6_Bucket_5: 228009
Non-critical_ROB_Stalls_Percent_6_Bucket_5: 5786
Critical_ROB_Stalls_Percent_6_Bucket_6: 651972
Non-critical_ROB_Stalls_Percent_6_Bucket_6: 9190
Critical_ROB_Stalls_Percent_7_Bucket_0: 1003762
Non-critical_ROB_Stalls_Percent_7_Bucket_0: 428808
Critical_ROB_Stalls_Percent_7_Bucket_1: 672255
Non-critical_ROB_Stalls_Percent_7_Bucket_1: 102229
Critical_ROB_Stalls_Percent_7_Bucket_2: 365998
Non-critical_ROB_Stalls_Percent_7_Bucket_2: 37954
Critical_ROB_Stalls_Percent_7_Bucket_3: 269004
Non-critical_ROB_Stalls_Percent_7_Bucket_3: 16043
Critical_ROB_Stalls_Percent_7_Bucket_4: 227434
Non-critical_ROB_Stalls_Percent_7_Bucket_4: 7511
Critical_ROB_Stalls_Percent_7_Bucket_5: 229902
Non-critical_ROB_Stalls_Percent_7_Bucket_5: 3893
Critical_ROB_Stalls_Percent_7_Bucket_6: 653793
Non-critical_ROB_Stalls_Percent_7_Bucket_6: 7369
Critical_ROB_Stalls_Percent_8_Bucket_0: 1135729
Non-critical_ROB_Stalls_Percent_8_Bucket_0: 296841
Critical_ROB_Stalls_Percent_8_Bucket_1: 714900
Non-critical_ROB_Stalls_Percent_8_Bucket_1: 59584
Critical_ROB_Stalls_Percent_8_Bucket_2: 380096
Non-critical_ROB_Stalls_Percent_8_Bucket_2: 23856
Critical_ROB_Stalls_Percent_8_Bucket_3: 274783
Non-critical_ROB_Stalls_Percent_8_Bucket_3: 10264
Critical_ROB_Stalls_Percent_8_Bucket_4: 230587
Non-critical_ROB_Stalls_Percent_8_Bucket_4: 4358
Critical_ROB_Stalls_Percent_8_Bucket_5: 231353
Non-critical_ROB_Stalls_Percent_8_Bucket_5: 2442
Critical_ROB_Stalls_Percent_8_Bucket_6: 655913
Non-critical_ROB_Stalls_Percent_8_Bucket_6: 5249
Average ROB occupancy Load Stall Begin: 125.71
Average ROB occupancy Load Stall End: 133.264
Min ROB occupancy Load Stall Begin: 1
Max ROB occupancy Load Stall Begin: 352
Min ROB occupancy Load Stall End: 1
Max ROB occupancy Load Stall End: 352
Average ROB occupancy Critical Load Stall Begin: -nan
Average ROB occupancy Critical Load Stall End: -nan
Min ROB occupancy Critical Load Stall Begin: 400
Max ROB occupancy Critical Load Stall Begin: 0
Min ROB occupancy Critical Load Stall End: 400
Max ROB occupancy Critical Load Stall End: 0
 ROB Load Stall Begin Bucket Count 0: 1713024
 ROB Load Stall End Bucket Count 0: 1432570
 ROB Critical Load Stall Begin Bucket Count 0: 0
 ROB Critical Load Stall End Bucket Count 0: 0
 ROB Load Stall Begin Bucket Count 1: 599499
 ROB Load Stall End Bucket Count 1: 774484
 ROB Critical Load Stall Begin Bucket Count 1: 0
 ROB Critical Load Stall End Bucket Count 1: 0
 ROB Load Stall Begin Bucket Count 2: 350096
 ROB Load Stall End Bucket Count 2: 403952
 ROB Critical Load Stall Begin Bucket Count 2: 0
 ROB Critical Load Stall End Bucket Count 2: 0
 ROB Load Stall Begin Bucket Count 3: 259467
 ROB Load Stall End Bucket Count 3: 285047
 ROB Critical Load Stall Begin Bucket Count 3: 0
 ROB Critical Load Stall End Bucket Count 3: 0
 ROB Load Stall Begin Bucket Count 4: 230942
 ROB Load Stall End Bucket Count 4: 234945
 ROB Critical Load Stall Begin Bucket Count 4: 0
 ROB Critical Load Stall End Bucket Count 4: 0
 ROB Load Stall Begin Bucket Count 5: 226196
 ROB Load Stall End Bucket Count 5: 233795
 ROB Critical Load Stall Begin Bucket Count 5: 0
 ROB Critical Load Stall End Bucket Count 5: 0
 ROB Load Stall Begin Bucket Count 6: 646732
 ROB Load Stall End Bucket Count 6: 661162
 ROB Critical Load Stall Begin Bucket Count 6: 0
 ROB Critical Load Stall End Bucket Count 6: 0
PIST Tag Read Accesses: 2458546
PIST Read Accesses: 1229273
PIST Tag Write Accesses: 2458546
PIST Write Accesses: 1229273
Criticality detector called times: 2370620
Max global_stall_cycles_count: 3458291
Threshold Modified: 1 times, factor: -1
Sturdy critical IP cache stats: 
 Unused entries: 0
CIC Tag Read Accesses: 0
CIC Read Accesses: 0
CIC Tag Write Accesses: 0
CIC Write Accesses: 0
Wobbly critical IP cache stats: 
 Unused entries: 47
CIC Tag Read Accesses: 87854626
CIC Read Accesses: 0
CIC Tag Write Accesses: 144294
CIC Write Accesses: 0
ITLB TOTAL     ACCESS:    9915442  HIT:    9719411  MISS:     196031  HIT %:     98.023  MISS %:    1.97703   MPKI: 3.92062
ITLB LOAD TRANSLATION ACCESS:    8939473  HIT:    8870027  MISS:      69446  HIT %:    99.2232  MISS %:   0.776847   MPKI: 1.38892
ITLB TRANSLATION FROM L1D PREFETCHER ACCESS:     975969  HIT:     849384  MISS:     126585  HIT %:    87.0298  MISS %:    12.9702   MPKI: 2.5317
ITLB PREFETCH  REQUESTED:          0  ISSUED:          0  USEFUL:     103570  USELESS:      23023
ITLB USEFUL LOAD PREFETCHES:     103570 PREFETCH ISSUED TO LOWER LEVEL:          0  ACCURACY: inf
ITLB TIMELY PREFETCHES:     103570 LATE PREFETCHES: 653 DROPPED PREFETCHES: 9429
ITLB PREFETCHES SAME FILL-ORIGIN LEVEL: 0 DIFFERENT FILL-ORIGIN LEVEL: 0
ITLB AVERAGE MISS LATENCY: 201266 cycles
ITLB RQ	ACCESS:   13010103	FORWARD:          0	MERGED:    3058116	TO_CACHE:    9951987

DTLB TOTAL     ACCESS:   10670049  HIT:    9160956  MISS:    1509093  HIT %:    85.8567  MISS %:    14.1433   MPKI: 30.1819
DTLB LOAD TRANSLATION ACCESS:   10670049  HIT:    9160956  MISS:    1509093  HIT %:    85.8567  MISS %:    14.1433   MPKI: 30.1819
DTLB PREFETCH  REQUESTED:          0  ISSUED:          0  USEFUL:          0  USELESS:          0
DTLB USEFUL LOAD PREFETCHES:          0 PREFETCH ISSUED TO LOWER LEVEL:          0  ACCURACY: -nan
DTLB TIMELY PREFETCHES:          0 LATE PREFETCHES: 0 DROPPED PREFETCHES: 0
DTLB PREFETCHES SAME FILL-ORIGIN LEVEL: 0 DIFFERENT FILL-ORIGIN LEVEL: 0
DTLB AVERAGE MISS LATENCY: 11.5105 cycles
DTLB RQ	ACCESS:   13829447	FORWARD:          0	MERGED:    3127328	TO_CACHE:   10702119

STLB TOTAL     ACCESS:    1705124  HIT:    1597189  MISS:     107935  HIT %:      93.67  MISS %:    6.33004   MPKI: 2.1587
STLB LOAD TRANSLATION ACCESS:    1577887  HIT:    1490774  MISS:      87113  HIT %:    94.4791  MISS %:    5.52086   MPKI: 1.74226
STLB TRANSLATION FROM L1D PREFETCHER ACCESS:     127237  HIT:     106415  MISS:      20822  HIT %:    83.6353  MISS %:    16.3647   MPKI: 0.41644
STLB PREFETCH  REQUESTED:          0  ISSUED:          0  USEFUL:      11863  USELESS:       9014
STLB USEFUL LOAD PREFETCHES:      11863 PREFETCH ISSUED TO LOWER LEVEL:          0  ACCURACY: inf
STLB TIMELY PREFETCHES:      11863 LATE PREFETCHES: 0 DROPPED PREFETCHES: 9430
STLB PREFETCHES SAME FILL-ORIGIN LEVEL: 0 DIFFERENT FILL-ORIGIN LEVEL: 0
STLB AVERAGE MISS LATENCY: 49.0651 cycles
STLB RQ	ACCESS:    1714554	FORWARD:          0	MERGED:          0	TO_CACHE:    1714554

STLB Hit, L1D data hit: 0
STLB Hit, L2C data hit: 0
STLB Hit, LLC data hit: 0
STLB Hit, LLC data miss: 0
STLB STLB hints to L2: 0
L1D TOTAL     ACCESS:   13678452  HIT:   11631893  MISS:    2046559  HIT %:    85.0381  MISS %:    14.9619   MPKI: 40.9312
L1D LOAD      ACCESS:    8984265  HIT:    7035941  MISS:    1948324  HIT %:     78.314  MISS %:     21.686   MPKI: 38.9665
L1D RFO       ACCESS:    4694187  HIT:    4595952  MISS:      98235  HIT %:    97.9073  MISS %:    2.09269   MPKI: 1.9647
L1D PREFETCH  REQUESTED:          0  ISSUED:          0  USEFUL:          0  USELESS:          0
L1D USEFUL LOAD PREFETCHES:          0 PREFETCH ISSUED TO LOWER LEVEL:          0  ACCURACY: -nan
L1D TIMELY PREFETCHES:          0 LATE PREFETCHES: 0 DROPPED PREFETCHES: 0
L1D PREFETCHES SAME FILL-ORIGIN LEVEL: 0 DIFFERENT FILL-ORIGIN LEVEL: 0
L1D AVERAGE MISS LATENCY: 25.3848 cycles
L1D RQ	ACCESS:   12436709	FORWARD:          0	MERGED:    3332181	TO_CACHE:    9019783
L1D WQ	ACCESS:    4946118	FORWARD:      84745	MERGED:     136454	TO_CACHE:    4809664

L1D UNIQUE REGIONS ACCESSED: 0
L1D REGIONS CONFLICTS: 0
L1D Cross Page Prefetch Requests: 0
L1D Same Page Prefetch Requests: 0
L1D ROI Sum of L1D PQ occupancy: 0
L1D PREFETCHES PUSHED FROM L2C: 0
L1I TOTAL     ACCESS:   12860885  HIT:   11195461  MISS:    1665424  HIT %:    87.0505  MISS %:    12.9495   MPKI: 33.3085
L1I LOAD      ACCESS:   10546184  HIT:   10295718  MISS:     250466  HIT %:    97.6251  MISS %:    2.37494   MPKI: 5.00932
L1I PREFETCH  ACCESS:    2314701  HIT:     899743  MISS:    1414958  HIT %:    38.8708  MISS %:    61.1292   MPKI: 28.2992
L1I PREFETCH  REQUESTED:    2538173  ISSUED:    2529597  USEFUL:     897952  USELESS:     516942
L1I USEFUL LOAD PREFETCHES:     897952 PREFETCH ISSUED TO LOWER LEVEL:    1445394  ACCURACY: 62.1251
L1I TIMELY PREFETCHES:     897952 LATE PREFETCHES: 30412 DROPPED PREFETCHES: 25141
L1I PREFETCHES SAME FILL-ORIGIN LEVEL: 1445394 DIFFERENT FILL-ORIGIN LEVEL: 0
L1I AVERAGE MISS LATENCY: 1.07406e+06 cycles
L1I RQ	ACCESS:   15273892	FORWARD:          0	MERGED:    4703781	TO_CACHE:   10570111
L1I PQ	ACCESS:    2529597	FORWARD:          0	MERGED:      89605	TO_CACHE:    2439992

BTB TOTAL     ACCESS:    6734670  HIT:    5946798  MISS:     787872  HIT %:    88.3013  MISS %:    11.6987   MPKI: 15.7574
BTB BRANCH_DIRECT_JUMP	ACCESS:     551642  HIT:     494500  MISS:      57142
BTB BRANCH_INDIRECT	ACCESS:     139368  HIT:     102277  MISS:      37091
BTB BRANCH_CONDITIONAL	ACCESS:    4079633  HIT:    3873989  MISS:     205644
BTB BRANCH_DIRECT_CALL	ACCESS:     776072  HIT:     672148  MISS:     103924
BTB BRANCH_INDIRECT_CALL	ACCESS:     194644  HIT:     163518  MISS:      31126
BTB BRANCH_RETURN	ACCESS:     993311  HIT:     640366  MISS:     352945
BTB BRANCH_OTHER ACCESS:          0  HIT:          0  MISS:          0

L2C TOTAL     ACCESS:    4545476  HIT:    3558339  MISS:     987137  HIT %:    78.2831  MISS %:    21.7169   MPKI: 19.7427
L2C LOAD      ACCESS:    2168368  HIT:    1809998  MISS:     358370  HIT %:    83.4728  MISS %:    16.5272   MPKI: 7.1674
L2C DATA LOAD MPKI: 5.30776
L2C INSTRUCTION LOAD MPKI: 1.85964
L2C RFO       ACCESS:      98234  HIT:      47870  MISS:      50364  HIT %:    48.7306  MISS %:    51.2694   MPKI: 1.00728
L2C PREFETCH  ACCESS:    1911204  HIT:    1409731  MISS:     501473  HIT %:    73.7614  MISS %:    26.2386   MPKI: 10.0295
L2C DATA PREFETCH MPKI: 0.30522
L2C INSTRUCTION PREFETCH MPKI: 9.72424
L2C WRITEBACK ACCESS:     215017  HIT:     193781  MISS:      21236  HIT %:    90.1236  MISS %:    9.87643   MPKI: 0.42472
L2C LOAD TRANSLATION ACCESS:     113523  HIT:      65753  MISS:      47770  HIT %:    57.9204  MISS %:    42.0796   MPKI: 0.9554
L2C TRANSLATION FROM L1D PREFETCHER ACCESS:      39130  HIT:      31206  MISS:       7924  HIT %:    79.7496  MISS %:    20.2504   MPKI: 0.15848
L2C PREFETCH  REQUESTED:     473435  ISSUED:     473421  USEFUL:      25200  USELESS:     484241
L2C USEFUL LOAD PREFETCHES:      25200 PREFETCH ISSUED TO LOWER LEVEL:     506413  ACCURACY: 4.97618
L2C TIMELY PREFETCHES:      25200 LATE PREFETCHES: 1948 DROPPED PREFETCHES: 0
L2C PREFETCHES SAME FILL-ORIGIN LEVEL: 17209 DIFFERENT FILL-ORIGIN LEVEL: 2992
L2C AVERAGE MISS LATENCY: 48.0611 cycles
L2C RQ	ACCESS:    2419266	FORWARD:          0	MERGED:          0	TO_CACHE:    2419255
L2C WQ	ACCESS:     215017	FORWARD:         11	MERGED:          0	TO_CACHE:     215017
L2C PQ	ACCESS:    1918791	FORWARD:          0	MERGED:         73	TO_CACHE:    1918718

L2C Instructions Evicting Data 205188
L2C Translations Evicting Data 19599
L2C Data Evicting Data 120403
L2C Instructions Evicting Instructions 341574
L2C Translations Evicting Instructions 32871
L2C Data Evicting Instructions 191646
L2C Instructions Evicting Translations 32432
L2C Translations Evicting Translations 3224
L2C Data Evicting Translations 18964
L2C Dense regions hint from L2: 0
PSCL5 TOTAL     ACCESS:     117365  HIT:     117365  MISS:          0  HIT %:        100  MISS %:          0   MPKI: 0
PSCL5 LOAD TRANSLATION ACCESS:      87113  HIT:      87113  MISS:          0  HIT %:        100  MISS %:          0   MPKI: 0
PSCL5 TRANSLATION FROM L1D PREFETCHER ACCESS:      30252  HIT:      30252  MISS:          0  HIT %:        100  MISS %:          0   MPKI: 0
PSCL5 PREFETCH  REQUESTED:          0  ISSUED:          0  USEFUL:          0  USELESS:          0
PSCL5 USEFUL LOAD PREFETCHES:          0 PREFETCH ISSUED TO LOWER LEVEL:          0  ACCURACY: -nan
PSCL5 TIMELY PREFETCHES:          0 LATE PREFETCHES: 0 DROPPED PREFETCHES: 0
PSCL5 PREFETCHES SAME FILL-ORIGIN LEVEL: 0 DIFFERENT FILL-ORIGIN LEVEL: 0

PSCL4 TOTAL     ACCESS:     110300  HIT:     110048  MISS:        252  HIT %:    99.7715  MISS %:   0.228468   MPKI: 0.00504
PSCL4 LOAD TRANSLATION ACCESS:      83819  HIT:      83567  MISS:        252  HIT %:    99.6994  MISS %:   0.300648   MPKI: 0.00504
PSCL4 TRANSLATION FROM L1D PREFETCHER ACCESS:      26481  HIT:      26481  MISS:          0  HIT %:        100  MISS %:          0   MPKI: 0
PSCL4 PREFETCH  REQUESTED:          0  ISSUED:          0  USEFUL:          0  USELESS:          0
PSCL4 USEFUL LOAD PREFETCHES:          0 PREFETCH ISSUED TO LOWER LEVEL:          0  ACCURACY: -nan
PSCL4 TIMELY PREFETCHES:          0 LATE PREFETCHES: 0 DROPPED PREFETCHES: 0
PSCL4 PREFETCHES SAME FILL-ORIGIN LEVEL: 0 DIFFERENT FILL-ORIGIN LEVEL: 0

PSCL3 TOTAL     ACCESS:     115742  HIT:     115103  MISS:        639  HIT %:    99.4479  MISS %:    0.55209   MPKI: 0.01278
PSCL3 LOAD TRANSLATION ACCESS:      86718  HIT:      86079  MISS:        639  HIT %:    99.2631  MISS %:   0.736871   MPKI: 0.01278
PSCL3 TRANSLATION FROM L1D PREFETCHER ACCESS:      29024  HIT:      29024  MISS:          0  HIT %:        100  MISS %:          0   MPKI: 0
PSCL3 PREFETCH  REQUESTED:          0  ISSUED:          0  USEFUL:          0  USELESS:          0
PSCL3 USEFUL LOAD PREFETCHES:          0 PREFETCH ISSUED TO LOWER LEVEL:          0  ACCURACY: -nan
PSCL3 TIMELY PREFETCHES:          0 LATE PREFETCHES: 0 DROPPED PREFETCHES: 0
PSCL3 PREFETCHES SAME FILL-ORIGIN LEVEL: 0 DIFFERENT FILL-ORIGIN LEVEL: 0

PSCL2 TOTAL     ACCESS:     112407  HIT:      83674  MISS:      28733  HIT %:    74.4384  MISS %:    25.5616   MPKI: 0.57466
PSCL2 LOAD TRANSLATION ACCESS:      90119  HIT:      61386  MISS:      28733  HIT %:    68.1166  MISS %:    31.8834   MPKI: 0.57466
PSCL2 TRANSLATION FROM L1D PREFETCHER ACCESS:      22288  HIT:      22288  MISS:          0  HIT %:        100  MISS %:          0   MPKI: 0
PSCL2 PREFETCH  REQUESTED:          0  ISSUED:          0  USEFUL:          0  USELESS:          0
PSCL2 USEFUL LOAD PREFETCHES:          0 PREFETCH ISSUED TO LOWER LEVEL:          0  ACCURACY: -nan
PSCL2 TIMELY PREFETCHES:          0 LATE PREFETCHES: 0 DROPPED PREFETCHES: 0
PSCL2 PREFETCHES SAME FILL-ORIGIN LEVEL: 0 DIFFERENT FILL-ORIGIN LEVEL: 0

LLC TOTAL     ACCESS:    1083139  HIT:     964041  MISS:     119098  HIT %:    89.0044  MISS %:    10.9956   MPKI: 2.38196
LLC LOAD      ACCESS:     356423  HIT:     295777  MISS:      60646  HIT %:    82.9848  MISS %:    17.0152   MPKI: 1.21292
LLC RFO       ACCESS:      50361  HIT:      32686  MISS:      17675  HIT %:    64.9034  MISS %:    35.0966   MPKI: 0.3535
LLC PREFETCH  ACCESS:     506389  HIT:     471168  MISS:      35221  HIT %:    93.0447  MISS %:    6.95532   MPKI: 0.70442
LLC WRITEBACK ACCESS:     114272  HIT:     111410  MISS:       2862  HIT %:    97.4954  MISS %:    2.50455   MPKI: 0.05724
LLC LOAD TRANSLATION ACCESS:      47770  HIT:      45198  MISS:       2572  HIT %:    94.6159  MISS %:    5.38413   MPKI: 0.05144
LLC TRANSLATION FROM L1D PREFETCHER ACCESS:       7924  HIT:       7802  MISS:        122  HIT %:    98.4604  MISS %:    1.53963   MPKI: 0.00244
LLC PREFETCH  REQUESTED:          0  ISSUED:          0  USEFUL:       2386  USELESS:      40517
LLC USEFUL LOAD PREFETCHES:       2386 PREFETCH ISSUED TO LOWER LEVEL:      35233  ACCURACY: 6.77206
LLC TIMELY PREFETCHES:       2386 LATE PREFETCHES: 12 DROPPED PREFETCHES: 0
LLC PREFETCHES SAME FILL-ORIGIN LEVEL: 905 DIFFERENT FILL-ORIGIN LEVEL: 0
LLC AVERAGE MISS LATENCY: 157.7 cycles
LLC RQ	ACCESS:     462480	FORWARD:          0	MERGED:          0	TO_CACHE:     462478
LLC WQ	ACCESS:     114272	FORWARD:          2	MERGED:          0	TO_CACHE:     114272
LLC PQ	ACCESS:     506413	FORWARD:          0	MERGED:          1	TO_CACHE:     506412

LLC Dense regions hint to LLC: 0

RAW hits: 1026351
Loads Generated: 13463062
Loads sent to L1D: 12436709
Stores Generated: 4946117
Stores sent to L1D: 4946118
Major fault: 0 Minor fault: 7942
Allocated PAGES: 7942
I-Shadow cache 408 bytes
Touched + WorthPF tables 6144 bytes 
MMA filter 174 bytes 
FNL filter 272 bytes 
TOTAL PREFETCHER STORAGE SIZE: 25174 bytes
CPU 0 L1I next line prefetcher final stats
------------------
Depth Distribution
------------------
depth 0: 160260
depth 1: 3496241
depth 2: 211267
depth 3: 1031464
depth 4: 1741550
depth 5: 210539
depth 6: 122
depth 7: 52
depth 8: 0
depth 9: 0
depth 10: 0
depth 11: 0
depth 12: 0
depth 13: 0
depth 14: 0
depth 15: 0
depth 16: 0
depth 17: 0
depth 18: 0
depth 19: 0
depth 20: 0
depth 21: 0
depth 22: 0
depth 23: 0
depth 24: 0
depth 25: 0
depth 26: 0
depth 27: 0
depth 28: 0
depth 29: 0
Total: 6851495
------------------
ST read accesses: 3115701
ST write accesses: 274157
PT read accesses: 56840746
PT write accesses: 4256776
FILTER read accesses: 14951231
FILTER write accesses: 2705359
GHR read accesses: 4082319
GHR write accesses: 332471
PERC read accesses: 380869524
PERC write accesses: 1793355
GHR counter read accesses: 6779716
GHR counter write accesses: 6353913
GHR ip read accesses: 11783100
GHR ip write accesses: 13559432
ST tag read accesses: 1444590695
ST tag write accesses: 125842897

DRAM Statistics
 CHANNEL 0
 RQ ROW_BUFFER_HIT:      25559  ROW_BUFFER_MISS:      90675
 DBUS_CONGESTED:         86
 WQ ROW_BUFFER_HIT:       9127  ROW_BUFFER_MISS:      37399  FULL:          0

 AVG_CONGESTED_CYCLE: 4
 All warmup complete: 2
Channel 0 Bank busy for read cycles: 0
Channel 0 Bank busy for write cycles: 0
Channel 0
Rank 0
0banks busy for read cycles: 83240103
0banks busy for write cycles: 20195
1banks busy for read cycles: 6506127
1banks busy for write cycles: 2861070
2banks busy for read cycles: 1670278
2banks busy for write cycles: 814145
3banks busy for read cycles: 543398
3banks busy for write cycles: 329001
4banks busy for read cycles: 250449
4banks busy for write cycles: 197439
5banks busy for read cycles: 153873
5banks busy for write cycles: 131634
6banks busy for read cycles: 136375
6banks busy for write cycles: 95690
7banks busy for read cycles: 62951
7banks busy for write cycles: 86547
8banks busy for read cycles: 49967
8banks busy for write cycles: 156652

CPU 0 Branch Prediction Accuracy: 98.1603% MPKI: 3.89124 Average ROB Occupancy at Mispredict: 40.3407
Branch types
NOT_BRANCH: 39423761 78.8475%
BRANCH_DIRECT_JUMP: 551642 1.10328%
BRANCH_INDIRECT: 139368 0.278736%
BRANCH_CONDITIONAL: 7920860 15.8417%
BRANCH_DIRECT_CALL: 776072 1.55214%
BRANCH_INDIRECT_CALL: 194644 0.389288%
BRANCH_RETURN: 993311 1.98662%
BRANCH_OTHER: 0 0%

DRAM PAGES: 1048576
Allocated PAGES: 7942
