
*** ChampSim Multicore Out-of-Order Simulator ***

Warmup Instructions: 50000000
Simulation Instructions: 50000000
Number of CPUs: 1
LLC sets: 2048
LLC ways: 16
Off-chip DRAM Size: 4096 MB Channels: 1 Width: 64-bit Data Rate: 6400 MT/s
CPU 0 runs ../IPC-traces//server_018.champsimtrace.xz
.xz
NUM_OF_IPS_IN_CRITICAL_IP_TRAINING: 64
NUM_OF_CRITICAL_IP_TRAINING_TABLE_WAYS: 2
NUM_OF_CRITICAL_IP_TRAINING_TABLE_SETS: 32
WOBBLY_CRITICAL_IP_CACHE_SETS: 32
WOBBLY_CRITICAL_IP_CACHE_WAYS: 4
BTB has LRU replacement policy
ITLB has LRU replacement policy
DTLB has LRU replacement policy
STLB has LRU replacement policy
CPU 0 L1I next line prefetcher
L1I has LRU replacement policy
L1D has LRU replacement policy
Bingo PHT WAYS: 16 and PHT_SIZE: 16384
Initialize SRRIP state for L2C
Initialize DRRIP state for LLC
Heartbeat CPU 0 instructions: 10000003 cycles: 3189577 heartbeat IPC: 3.13521 cumulative IPC: 3.13521 (Simulation time: 0 hr 3 min 34 sec) 
Heartbeat CPU 0 instructions: 20000001 cycles: 6371919 heartbeat IPC: 3.14234 cumulative IPC: 3.13877 (Simulation time: 0 hr 6 min 26 sec) 
Heartbeat CPU 0 instructions: 30000001 cycles: 9454703 heartbeat IPC: 3.24382 cumulative IPC: 3.17302 (Simulation time: 0 hr 9 min 4 sec) 
Heartbeat CPU 0 instructions: 40000002 cycles: 12554585 heartbeat IPC: 3.22593 cumulative IPC: 3.18609 (Simulation time: 0 hr 11 min 20 sec) 
Heartbeat CPU 0 instructions: 50000003 cycles: 15732052 heartbeat IPC: 3.14716 cumulative IPC: 3.17823 (Simulation time: 0 hr 13 min 24 sec) 

Warmup complete CPU 0 instructions: 50000003 cycles: 15732052 (Simulation time: 0 hr 13 min 24 sec) 

% increase in all ip prefetch 404.116
% increase in all ip prefetch -12.2726
Heartbeat CPU 0 instructions: 60000000 cycles: 34742291 heartbeat IPC: 0.526032 cumulative IPC: 0.526032 (Simulation time: 0 hr 16 min 42 sec) 
Heartbeat CPU 0 instructions: 70000000 cycles: 53773151 heartbeat IPC: 0.525462 cumulative IPC: 0.525747 (Simulation time: 0 hr 20 min 3 sec) 
Heartbeat CPU 0 instructions: 80000000 cycles: 72691120 heartbeat IPC: 0.528598 cumulative IPC: 0.526694 (Simulation time: 0 hr 23 min 19 sec) 
Heartbeat CPU 0 instructions: 90000000 cycles: 91270216 heartbeat IPC: 0.538239 cumulative IPC: 0.529534 (Simulation time: 0 hr 28 min 12 sec) 
Heartbeat CPU 0 instructions: 100000003 cycles: 109801160 heartbeat IPC: 0.539638 cumulative IPC: 0.531524 (Simulation time: 0 hr 32 min 39 sec) 
Finished CPU 0 instructions: 50000000 cycles: 94069108 cumulative IPC: 0.531524 (Simulation time: 0 hr 32 min 39 sec) 

ChampSim completed all CPUs

Region of Interest Statistics

CPU 0 cumulative IPC: 0.531524 instructions: 50000000 cycles: 94069108

CPU 0 Average Load ROB stall cycles: 2.88802e+07
CPU 0 Fraction of times ROB stalled by Loads: 45.7521
CPU 0 Percentage of Load stall cycles in Total stall cycles: 2.74819e+08
Issued all: 49735600
Issued LT all: 44407427
rob_not_full_when_issued_lt_all: 16986858
Issued LT one: 38656599
rob_not_full_when_issued_lt_one: 12956667
 Total stall cycles: 76466499
 Total load stall cycles: 210144684235077
CPU 0 NUM of IPS identified critical: 0
CPU 0 Num of Load IPs stalling ROB: 5005
Threshold modification factor: -1
Max PIST entries: 64
Min PIST entries: 0
Avg PIST entries: 32
Trouble in retire width: 0.805814
MaC = Marked as critical.
lt_50_percent_before_Mac: 0
gt_90_percent_before_Mac: 0
gt_75_percent_before_Mac: 0
gt_50_percent_before_Mac: 0
stall_proportion_bin_same_before_after: 0
stall_proportion_bin_lower_before_after: 0
stall_proportion_bin_upper_before_after: 0
average_stall_proportion_before: -nan
average_stall_proportion_after: -nan
Critical IP stalls, total frequency: 0
Non-critical IP stalls, total frequency: 3329116
Total Freq all stalling IPs: 3329116
stat_90_percent_critical_ip_stalls_freq: 2996492
stat_90_percent_non_critical_ip_stalls_freq: 332624
Critical_IP_ROB_Stalls_Bucket_0: 0
Non-critical_IP_ROB_Stalls_Bucket_0: 556522
Critical_IP_ROB_Stalls_Bucket_1: 0
Non-critical_IP_ROB_Stalls_Bucket_1: 654238
Critical_IP_ROB_Stalls_Bucket_2: 0
Non-critical_IP_ROB_Stalls_Bucket_2: 446809
Critical_IP_ROB_Stalls_Bucket_3: 0
Non-critical_IP_ROB_Stalls_Bucket_3: 263580
Critical_IP_ROB_Stalls_Bucket_4: 0
Non-critical_IP_ROB_Stalls_Bucket_4: 161079
Critical_IP_ROB_Stalls_Bucket_5: 0
Non-critical_IP_ROB_Stalls_Bucket_5: 139593
Critical_IP_ROB_Stalls_Bucket_6: 0
Non-critical_IP_ROB_Stalls_Bucket_6: 1107295
0 => IPs accounting for >50 percent of stalls, 1 => 55, 2 => 60, 3 => 65 and so on till 90.
percent50: 50.2088 num IPs:  13
percent55: 55.0247 num IPs: 30
percent60: 60.0157 num IPs: 61
percent65: 65.0154 num IPs: 106
percent70: 70.0599 num IPs: 177
percent75: 75.0374 num IPs: 248
percent80: 80.049 num IPs: 321
percent85: 85.0075 num IPs: 400
percent90: 90.0086 num IPs: 503
Critical_ROB_Stalls_Percent_0_Bucket_0: 52773
Non-critical_ROB_Stalls_Percent_0_Bucket_0: 503749
Critical_ROB_Stalls_Percent_0_Bucket_1: 117001
Non-critical_ROB_Stalls_Percent_0_Bucket_1: 537237
Critical_ROB_Stalls_Percent_0_Bucket_2: 151242
Non-critical_ROB_Stalls_Percent_0_Bucket_2: 295567
Critical_ROB_Stalls_Percent_0_Bucket_3: 136616
Non-critical_ROB_Stalls_Percent_0_Bucket_3: 126964
Critical_ROB_Stalls_Percent_0_Bucket_4: 109103
Non-critical_ROB_Stalls_Percent_0_Bucket_4: 51976
Critical_ROB_Stalls_Percent_0_Bucket_5: 103328
Non-critical_ROB_Stalls_Percent_0_Bucket_5: 36265
Critical_ROB_Stalls_Percent_0_Bucket_6: 1001447
Non-critical_ROB_Stalls_Percent_0_Bucket_6: 105848
Critical_ROB_Stalls_Percent_1_Bucket_0: 112891
Non-critical_ROB_Stalls_Percent_1_Bucket_0: 443631
Critical_ROB_Stalls_Percent_1_Bucket_1: 167934
Non-critical_ROB_Stalls_Percent_1_Bucket_1: 486304
Critical_ROB_Stalls_Percent_1_Bucket_2: 165848
Non-critical_ROB_Stalls_Percent_1_Bucket_2: 280961
Critical_ROB_Stalls_Percent_1_Bucket_3: 157169
Non-critical_ROB_Stalls_Percent_1_Bucket_3: 106411
Critical_ROB_Stalls_Percent_1_Bucket_4: 115097
Non-critical_ROB_Stalls_Percent_1_Bucket_4: 45982
Critical_ROB_Stalls_Percent_1_Bucket_5: 106521
Non-critical_ROB_Stalls_Percent_1_Bucket_5: 33072
Critical_ROB_Stalls_Percent_1_Bucket_6: 1006377
Non-critical_ROB_Stalls_Percent_1_Bucket_6: 100918
Critical_ROB_Stalls_Percent_2_Bucket_0: 177484
Non-critical_ROB_Stalls_Percent_2_Bucket_0: 379038
Critical_ROB_Stalls_Percent_2_Bucket_1: 202941
Non-critical_ROB_Stalls_Percent_2_Bucket_1: 451297
Critical_ROB_Stalls_Percent_2_Bucket_2: 194059
Non-critical_ROB_Stalls_Percent_2_Bucket_2: 252750
Critical_ROB_Stalls_Percent_2_Bucket_3: 165037
Non-critical_ROB_Stalls_Percent_2_Bucket_3: 98543
Critical_ROB_Stalls_Percent_2_Bucket_4: 119312
Non-critical_ROB_Stalls_Percent_2_Bucket_4: 41767
Critical_ROB_Stalls_Percent_2_Bucket_5: 111402
Non-critical_ROB_Stalls_Percent_2_Bucket_5: 28191
Critical_ROB_Stalls_Percent_2_Bucket_6: 1027758
Non-critical_ROB_Stalls_Percent_2_Bucket_6: 79537
Critical_ROB_Stalls_Percent_3_Bucket_0: 217439
Non-critical_ROB_Stalls_Percent_3_Bucket_0: 339083
Critical_ROB_Stalls_Percent_3_Bucket_1: 254702
Non-critical_ROB_Stalls_Percent_3_Bucket_1: 399536
Critical_ROB_Stalls_Percent_3_Bucket_2: 229771
Non-critical_ROB_Stalls_Percent_3_Bucket_2: 217038
Critical_ROB_Stalls_Percent_3_Bucket_3: 175167
Non-critical_ROB_Stalls_Percent_3_Bucket_3: 88413
Critical_ROB_Stalls_Percent_3_Bucket_4: 124109
Non-critical_ROB_Stalls_Percent_3_Bucket_4: 36970
Critical_ROB_Stalls_Percent_3_Bucket_5: 117733
Non-critical_ROB_Stalls_Percent_3_Bucket_5: 21860
Critical_ROB_Stalls_Percent_3_Bucket_6: 1045518
Non-critical_ROB_Stalls_Percent_3_Bucket_6: 61777
Critical_ROB_Stalls_Percent_4_Bucket_0: 239581
Non-critical_ROB_Stalls_Percent_4_Bucket_0: 316941
Critical_ROB_Stalls_Percent_4_Bucket_1: 311720
Non-critical_ROB_Stalls_Percent_4_Bucket_1: 342518
Critical_ROB_Stalls_Percent_4_Bucket_2: 272919
Non-critical_ROB_Stalls_Percent_4_Bucket_2: 173890
Critical_ROB_Stalls_Percent_4_Bucket_3: 196771
Non-critical_ROB_Stalls_Percent_4_Bucket_3: 66809
Critical_ROB_Stalls_Percent_4_Bucket_4: 135526
Non-critical_ROB_Stalls_Percent_4_Bucket_4: 25553
Critical_ROB_Stalls_Percent_4_Bucket_5: 122813
Non-critical_ROB_Stalls_Percent_4_Bucket_5: 16780
Critical_ROB_Stalls_Percent_4_Bucket_6: 1053044
Non-critical_ROB_Stalls_Percent_4_Bucket_6: 54251
Critical_ROB_Stalls_Percent_5_Bucket_0: 282452
Non-critical_ROB_Stalls_Percent_5_Bucket_0: 274070
Critical_ROB_Stalls_Percent_5_Bucket_1: 376169
Non-critical_ROB_Stalls_Percent_5_Bucket_1: 278069
Critical_ROB_Stalls_Percent_5_Bucket_2: 307093
Non-critical_ROB_Stalls_Percent_5_Bucket_2: 139716
Critical_ROB_Stalls_Percent_5_Bucket_3: 206505
Non-critical_ROB_Stalls_Percent_5_Bucket_3: 57075
Critical_ROB_Stalls_Percent_5_Bucket_4: 141795
Non-critical_ROB_Stalls_Percent_5_Bucket_4: 19284
Critical_ROB_Stalls_Percent_5_Bucket_5: 126994
Non-critical_ROB_Stalls_Percent_5_Bucket_5: 12599
Critical_ROB_Stalls_Percent_5_Bucket_6: 1057074
Non-critical_ROB_Stalls_Percent_5_Bucket_6: 50221
Critical_ROB_Stalls_Percent_6_Bucket_0: 319667
Non-critical_ROB_Stalls_Percent_6_Bucket_0: 236855
Critical_ROB_Stalls_Percent_6_Bucket_1: 444153
Non-critical_ROB_Stalls_Percent_6_Bucket_1: 210085
Critical_ROB_Stalls_Percent_6_Bucket_2: 339858
Non-critical_ROB_Stalls_Percent_6_Bucket_2: 106951
Critical_ROB_Stalls_Percent_6_Bucket_3: 220573
Non-critical_ROB_Stalls_Percent_6_Bucket_3: 43007
Critical_ROB_Stalls_Percent_6_Bucket_4: 146014
Non-critical_ROB_Stalls_Percent_6_Bucket_4: 15065
Critical_ROB_Stalls_Percent_6_Bucket_5: 128366
Non-critical_ROB_Stalls_Percent_6_Bucket_5: 11227
Critical_ROB_Stalls_Percent_6_Bucket_6: 1066293
Non-critical_ROB_Stalls_Percent_6_Bucket_6: 41002
Critical_ROB_Stalls_Percent_7_Bucket_0: 374007
Non-critical_ROB_Stalls_Percent_7_Bucket_0: 182515
Critical_ROB_Stalls_Percent_7_Bucket_1: 500029
Non-critical_ROB_Stalls_Percent_7_Bucket_1: 154209
Critical_ROB_Stalls_Percent_7_Bucket_2: 370423
Non-critical_ROB_Stalls_Percent_7_Bucket_2: 76386
Critical_ROB_Stalls_Percent_7_Bucket_3: 230924
Non-critical_ROB_Stalls_Percent_7_Bucket_3: 32656
Critical_ROB_Stalls_Percent_7_Bucket_4: 149743
Non-critical_ROB_Stalls_Percent_7_Bucket_4: 11336
Critical_ROB_Stalls_Percent_7_Bucket_5: 129669
Non-critical_ROB_Stalls_Percent_7_Bucket_5: 9924
Critical_ROB_Stalls_Percent_7_Bucket_6: 1075204
Non-critical_ROB_Stalls_Percent_7_Bucket_6: 32091
Critical_ROB_Stalls_Percent_8_Bucket_0: 443365
Non-critical_ROB_Stalls_Percent_8_Bucket_0: 113157
Critical_ROB_Stalls_Percent_8_Bucket_1: 550295
Non-critical_ROB_Stalls_Percent_8_Bucket_1: 103943
Critical_ROB_Stalls_Percent_8_Bucket_2: 394997
Non-critical_ROB_Stalls_Percent_8_Bucket_2: 51812
Critical_ROB_Stalls_Percent_8_Bucket_3: 237450
Non-critical_ROB_Stalls_Percent_8_Bucket_3: 26130
Critical_ROB_Stalls_Percent_8_Bucket_4: 152373
Non-critical_ROB_Stalls_Percent_8_Bucket_4: 8706
Critical_ROB_Stalls_Percent_8_Bucket_5: 132872
Non-critical_ROB_Stalls_Percent_8_Bucket_5: 6721
Critical_ROB_Stalls_Percent_8_Bucket_6: 1085140
Non-critical_ROB_Stalls_Percent_8_Bucket_6: 22155
Average ROB occupancy Load Stall Begin: 180.055
Average ROB occupancy Load Stall End: 188.162
Min ROB occupancy Load Stall Begin: 1
Max ROB occupancy Load Stall Begin: 352
Min ROB occupancy Load Stall End: 1
Max ROB occupancy Load Stall End: 352
Average ROB occupancy Critical Load Stall Begin: -nan
Average ROB occupancy Critical Load Stall End: -nan
Min ROB occupancy Critical Load Stall Begin: 400
Max ROB occupancy Critical Load Stall Begin: 0
Min ROB occupancy Critical Load Stall End: 400
Max ROB occupancy Critical Load Stall End: 0
 ROB Load Stall Begin Bucket Count 0: 772724
 ROB Load Stall End Bucket Count 0: 556522
 ROB Critical Load Stall Begin Bucket Count 0: 0
 ROB Critical Load Stall End Bucket Count 0: 0
 ROB Load Stall Begin Bucket Count 1: 571590
 ROB Load Stall End Bucket Count 1: 654238
 ROB Critical Load Stall Begin Bucket Count 1: 0
 ROB Critical Load Stall End Bucket Count 1: 0
 ROB Load Stall Begin Bucket Count 2: 388963
 ROB Load Stall End Bucket Count 2: 446809
 ROB Critical Load Stall Begin Bucket Count 2: 0
 ROB Critical Load Stall End Bucket Count 2: 0
 ROB Load Stall Begin Bucket Count 3: 224256
 ROB Load Stall End Bucket Count 3: 263580
 ROB Critical Load Stall Begin Bucket Count 3: 0
 ROB Critical Load Stall End Bucket Count 3: 0
 ROB Load Stall Begin Bucket Count 4: 148659
 ROB Load Stall End Bucket Count 4: 161079
 ROB Critical Load Stall Begin Bucket Count 4: 0
 ROB Critical Load Stall End Bucket Count 4: 0
 ROB Load Stall Begin Bucket Count 5: 142003
 ROB Load Stall End Bucket Count 5: 139593
 ROB Critical Load Stall Begin Bucket Count 5: 0
 ROB Critical Load Stall End Bucket Count 5: 0
 ROB Load Stall Begin Bucket Count 6: 1080921
 ROB Load Stall End Bucket Count 6: 1107295
 ROB Critical Load Stall Begin Bucket Count 6: 0
 ROB Critical Load Stall End Bucket Count 6: 0
PIST Tag Read Accesses: 2874548
PIST Read Accesses: 1437274
PIST Tag Write Accesses: 2874548
PIST Write Accesses: 1437274
Criticality detector called times: 1849791
Max global_stall_cycles_count: 3687810
Threshold Modified: 1 times, factor: -1
Sturdy critical IP cache stats: 
 Unused entries: 0
CIC Tag Read Accesses: 0
CIC Read Accesses: 0
CIC Tag Write Accesses: 0
CIC Write Accesses: 0
Wobbly critical IP cache stats: 
 Unused entries: 117
CIC Tag Read Accesses: 92539633
CIC Read Accesses: 0
CIC Tag Write Accesses: 161
CIC Write Accesses: 0
ITLB TOTAL     ACCESS:   10365827  HIT:    9885849  MISS:     479978  HIT %:    95.3696  MISS %:    4.63039   MPKI: 9.59956
ITLB LOAD TRANSLATION ACCESS:    8466090  HIT:    8455807  MISS:      10283  HIT %:    99.8785  MISS %:   0.121461   MPKI: 0.20566
ITLB TRANSLATION FROM L1D PREFETCHER ACCESS:    1899737  HIT:    1430042  MISS:     469695  HIT %:    75.2758  MISS %:    24.7242   MPKI: 9.3939
ITLB PREFETCH  REQUESTED:          0  ISSUED:          0  USEFUL:     417267  USELESS:      52426
ITLB USEFUL LOAD PREFETCHES:     417267 PREFETCH ISSUED TO LOWER LEVEL:          0  ACCURACY: inf
ITLB TIMELY PREFETCHES:     417267 LATE PREFETCHES: 311 DROPPED PREFETCHES: 0
ITLB PREFETCHES SAME FILL-ORIGIN LEVEL: 0 DIFFERENT FILL-ORIGIN LEVEL: 0
ITLB AVERAGE MISS LATENCY: 41825.4 cycles
ITLB RQ	ACCESS:   14799349	FORWARD:          0	MERGED:    4381119	TO_CACHE:   10418230

DTLB TOTAL     ACCESS:   10873399  HIT:   10450175  MISS:     423224  HIT %:    96.1077  MISS %:    3.89229   MPKI: 8.46448
DTLB LOAD TRANSLATION ACCESS:   10873399  HIT:   10450175  MISS:     423224  HIT %:    96.1077  MISS %:    3.89229   MPKI: 8.46448
DTLB PREFETCH  REQUESTED:          0  ISSUED:          0  USEFUL:          0  USELESS:          0
DTLB USEFUL LOAD PREFETCHES:          0 PREFETCH ISSUED TO LOWER LEVEL:          0  ACCURACY: -nan
DTLB TIMELY PREFETCHES:          0 LATE PREFETCHES: 0 DROPPED PREFETCHES: 0
DTLB PREFETCHES SAME FILL-ORIGIN LEVEL: 0 DIFFERENT FILL-ORIGIN LEVEL: 0
DTLB AVERAGE MISS LATENCY: 19.6413 cycles
DTLB RQ	ACCESS:   16097393	FORWARD:          0	MERGED:    5140516	TO_CACHE:   10956877

STLB TOTAL     ACCESS:     903201  HIT:     867325  MISS:      35876  HIT %:    96.0279  MISS %:    3.97209   MPKI: 0.71752
STLB LOAD TRANSLATION ACCESS:     433195  HIT:     397923  MISS:      35272  HIT %:    91.8577  MISS %:    8.14229   MPKI: 0.70544
STLB TRANSLATION FROM L1D PREFETCHER ACCESS:     470006  HIT:     469402  MISS:        604  HIT %:    99.8715  MISS %:   0.128509   MPKI: 0.01208
STLB PREFETCH  REQUESTED:          0  ISSUED:          0  USEFUL:        413  USELESS:        173
STLB USEFUL LOAD PREFETCHES:        413 PREFETCH ISSUED TO LOWER LEVEL:          0  ACCURACY: inf
STLB TIMELY PREFETCHES:        413 LATE PREFETCHES: 0 DROPPED PREFETCHES: 0
STLB PREFETCHES SAME FILL-ORIGIN LEVEL: 0 DIFFERENT FILL-ORIGIN LEVEL: 0
STLB AVERAGE MISS LATENCY: 130.66 cycles
STLB RQ	ACCESS:     903201	FORWARD:          0	MERGED:          0	TO_CACHE:     903201

STLB Hit, L1D data hit: 0
STLB Hit, L2C data hit: 0
STLB Hit, LLC data hit: 0
STLB Hit, LLC data miss: 0
STLB STLB hints to L2: 0
L1D TOTAL     ACCESS:   13846441  HIT:   12042050  MISS:    1804391  HIT %:    86.9686  MISS %:    13.0314   MPKI: 36.0878
L1D LOAD      ACCESS:    7425702  HIT:    6590900  MISS:     834802  HIT %:    88.7579  MISS %:    11.2421   MPKI: 16.696
L1D RFO       ACCESS:    6420739  HIT:    5451150  MISS:     969589  HIT %:    84.8991  MISS %:    15.1009   MPKI: 19.3918
L1D PREFETCH  REQUESTED:          0  ISSUED:          0  USEFUL:          0  USELESS:          0
L1D USEFUL LOAD PREFETCHES:          0 PREFETCH ISSUED TO LOWER LEVEL:          0  ACCURACY: -nan
L1D TIMELY PREFETCHES:          0 LATE PREFETCHES: 0 DROPPED PREFETCHES: 0
L1D PREFETCHES SAME FILL-ORIGIN LEVEL: 0 DIFFERENT FILL-ORIGIN LEVEL: 0
L1D AVERAGE MISS LATENCY: 144.702 cycles
L1D RQ	ACCESS:   11089301	FORWARD:          0	MERGED:    3505279	TO_CACHE:    7453261
L1D WQ	ACCESS:    8736102	FORWARD:     130761	MERGED:      91970	TO_CACHE:    8644132

L1D UNIQUE REGIONS ACCESSED: 0
L1D REGIONS CONFLICTS: 0
L1D Cross Page Prefetch Requests: 0
L1D Same Page Prefetch Requests: 0
L1D ROI Sum of L1D PQ occupancy: 0
L1D PREFETCHES PUSHED FROM L2C: 0
L1I TOTAL     ACCESS:   14727799  HIT:   11585223  MISS:    3142576  HIT %:    78.6623  MISS %:    21.3377   MPKI: 62.8515
L1I LOAD      ACCESS:    9882118  HIT:    9861890  MISS:      20228  HIT %:    99.7953  MISS %:   0.204693   MPKI: 0.40456
L1I PREFETCH  ACCESS:    4845681  HIT:    1723333  MISS:    3122348  HIT %:    35.5643  MISS %:    64.4357   MPKI: 62.447
L1I PREFETCH  REQUESTED:    5083588  ISSUED:    5078503  USEFUL:    2603535  USELESS:     518749
L1I USEFUL LOAD PREFETCHES:    2603535 PREFETCH ISSUED TO LOWER LEVEL:    3174855  ACCURACY: 82.0048
L1I TIMELY PREFETCHES:    2603535 LATE PREFETCHES: 5531 DROPPED PREFETCHES: 0
L1I PREFETCHES SAME FILL-ORIGIN LEVEL: 3174855 DIFFERENT FILL-ORIGIN LEVEL: 0
L1I AVERAGE MISS LATENCY: 112550 cycles
L1I RQ	ACCESS:   14152898	FORWARD:          0	MERGED:    4266952	TO_CACHE:    9885946
L1I PQ	ACCESS:    5078503	FORWARD:          0	MERGED:     165100	TO_CACHE:    4913403

BTB TOTAL     ACCESS:    5333738  HIT:    5067581  MISS:     266157  HIT %:    95.0099  MISS %:    4.99007   MPKI: 5.32314
BTB BRANCH_DIRECT_JUMP	ACCESS:     458651  HIT:     456812  MISS:       1839
BTB BRANCH_INDIRECT	ACCESS:      48282  HIT:      48106  MISS:        176
BTB BRANCH_CONDITIONAL	ACCESS:    3005654  HIT:    2999755  MISS:       5899
BTB BRANCH_DIRECT_CALL	ACCESS:     744228  HIT:     740447  MISS:       3781
BTB BRANCH_INDIRECT_CALL	ACCESS:     166336  HIT:     137435  MISS:      28901
BTB BRANCH_RETURN	ACCESS:     910587  HIT:     685026  MISS:     225561
BTB BRANCH_OTHER ACCESS:          0  HIT:          0  MISS:          0

L2C TOTAL     ACCESS:    6859254  HIT:    4937262  MISS:    1921992  HIT %:    71.9796  MISS %:    28.0204   MPKI: 38.4398
L2C LOAD      ACCESS:     849491  HIT:     667622  MISS:     181869  HIT %:    78.5908  MISS %:    21.4092   MPKI: 3.63738
L2C DATA LOAD MPKI: 3.52352
L2C INSTRUCTION LOAD MPKI: 0.11386
L2C RFO       ACCESS:     969583  HIT:      62748  MISS:     906835  HIT %:    6.47165  MISS %:    93.5284   MPKI: 18.1367
L2C PREFETCH  ACCESS:    3841251  HIT:    3100023  MISS:     741228  HIT %:    80.7035  MISS %:    19.2965   MPKI: 14.8246
L2C DATA PREFETCH MPKI: 11.3627
L2C INSTRUCTION PREFETCH MPKI: 3.46184
L2C WRITEBACK ACCESS:    1155565  HIT:    1090344  MISS:      65221  HIT %:    94.3559  MISS %:    5.64408   MPKI: 1.30442
L2C LOAD TRANSLATION ACCESS:      42430  HIT:      16302  MISS:      26128  HIT %:    38.4209  MISS %:    61.5791   MPKI: 0.52256
L2C TRANSLATION FROM L1D PREFETCHER ACCESS:        934  HIT:        223  MISS:        711  HIT %:    23.8758  MISS %:    76.1242   MPKI: 0.01422
L2C PREFETCH  REQUESTED:     749994  ISSUED:     749994  USEFUL:     493487  USELESS:     249239
L2C USEFUL LOAD PREFETCHES:     493487 PREFETCH ISSUED TO LOWER LEVEL:     752116  ACCURACY: 65.6132
L2C TIMELY PREFETCHES:     493487 LATE PREFETCHES: 10888 DROPPED PREFETCHES: 0
L2C PREFETCHES SAME FILL-ORIGIN LEVEL: 579024 DIFFERENT FILL-ORIGIN LEVEL: 0
L2C AVERAGE MISS LATENCY: 170.727 cycles
L2C RQ	ACCESS:    1862452	FORWARD:          0	MERGED:          0	TO_CACHE:    1862438
L2C WQ	ACCESS:    1155565	FORWARD:         14	MERGED:          0	TO_CACHE:    1155565
L2C PQ	ACCESS:    3877869	FORWARD:          0	MERGED:          3	TO_CACHE:    3877866

L2C Instructions Evicting Data 157918
L2C Translations Evicting Data 24162
L2C Data Evicting Data 1474366
L2C Instructions Evicting Instructions 18277
L2C Translations Evicting Instructions 2378
L2C Data Evicting Instructions 153441
L2C Instructions Evicting Translations 2590
L2C Translations Evicting Translations 299
L2C Data Evicting Translations 23340
L2C Dense regions hint from L2: 0
PSCL5 TOTAL     ACCESS:      35876  HIT:      35876  MISS:          0  HIT %:        100  MISS %:          0   MPKI: 0
PSCL5 LOAD TRANSLATION ACCESS:      35272  HIT:      35272  MISS:          0  HIT %:        100  MISS %:          0   MPKI: 0
PSCL5 TRANSLATION FROM L1D PREFETCHER ACCESS:        604  HIT:        604  MISS:          0  HIT %:        100  MISS %:          0   MPKI: 0
PSCL5 PREFETCH  REQUESTED:          0  ISSUED:          0  USEFUL:          0  USELESS:          0
PSCL5 USEFUL LOAD PREFETCHES:          0 PREFETCH ISSUED TO LOWER LEVEL:          0  ACCURACY: -nan
PSCL5 TIMELY PREFETCHES:          0 LATE PREFETCHES: 0 DROPPED PREFETCHES: 0
PSCL5 PREFETCHES SAME FILL-ORIGIN LEVEL: 0 DIFFERENT FILL-ORIGIN LEVEL: 0

PSCL4 TOTAL     ACCESS:      33641  HIT:      33541  MISS:        100  HIT %:    99.7027  MISS %:   0.297256   MPKI: 0.002
PSCL4 LOAD TRANSLATION ACCESS:      33070  HIT:      32970  MISS:        100  HIT %:    99.6976  MISS %:   0.302389   MPKI: 0.002
PSCL4 TRANSLATION FROM L1D PREFETCHER ACCESS:        571  HIT:        571  MISS:          0  HIT %:        100  MISS %:          0   MPKI: 0
PSCL4 PREFETCH  REQUESTED:          0  ISSUED:          0  USEFUL:          0  USELESS:          0
PSCL4 USEFUL LOAD PREFETCHES:          0 PREFETCH ISSUED TO LOWER LEVEL:          0  ACCURACY: -nan
PSCL4 TIMELY PREFETCHES:          0 LATE PREFETCHES: 0 DROPPED PREFETCHES: 0
PSCL4 PREFETCHES SAME FILL-ORIGIN LEVEL: 0 DIFFERENT FILL-ORIGIN LEVEL: 0

PSCL3 TOTAL     ACCESS:      35858  HIT:      35758  MISS:        100  HIT %:    99.7211  MISS %:   0.278878   MPKI: 0.002
PSCL3 LOAD TRANSLATION ACCESS:      35287  HIT:      35187  MISS:        100  HIT %:    99.7166  MISS %:    0.28339   MPKI: 0.002
PSCL3 TRANSLATION FROM L1D PREFETCHER ACCESS:        571  HIT:        571  MISS:          0  HIT %:        100  MISS %:          0   MPKI: 0
PSCL3 PREFETCH  REQUESTED:          0  ISSUED:          0  USEFUL:          0  USELESS:          0
PSCL3 USEFUL LOAD PREFETCHES:          0 PREFETCH ISSUED TO LOWER LEVEL:          0  ACCURACY: -nan
PSCL3 TIMELY PREFETCHES:          0 LATE PREFETCHES: 0 DROPPED PREFETCHES: 0
PSCL3 PREFETCHES SAME FILL-ORIGIN LEVEL: 0 DIFFERENT FILL-ORIGIN LEVEL: 0

PSCL2 TOTAL     ACCESS:      35876  HIT:      28561  MISS:       7315  HIT %:    79.6103  MISS %:    20.3897   MPKI: 0.1463
PSCL2 LOAD TRANSLATION ACCESS:      35548  HIT:      28233  MISS:       7315  HIT %:    79.4222  MISS %:    20.5778   MPKI: 0.1463
PSCL2 TRANSLATION FROM L1D PREFETCHER ACCESS:        328  HIT:        328  MISS:          0  HIT %:        100  MISS %:          0   MPKI: 0
PSCL2 PREFETCH  REQUESTED:          0  ISSUED:          0  USEFUL:          0  USELESS:          0
PSCL2 USEFUL LOAD PREFETCHES:          0 PREFETCH ISSUED TO LOWER LEVEL:          0  ACCURACY: -nan
PSCL2 TIMELY PREFETCHES:          0 LATE PREFETCHES: 0 DROPPED PREFETCHES: 0
PSCL2 PREFETCHES SAME FILL-ORIGIN LEVEL: 0 DIFFERENT FILL-ORIGIN LEVEL: 0

LLC TOTAL     ACCESS:    2947238  HIT:    1537877  MISS:    1409361  HIT %:    52.1803  MISS %:    47.8197   MPKI: 28.1872
LLC LOAD      ACCESS:     171030  HIT:     117560  MISS:      53470  HIT %:    68.7365  MISS %:    31.2635   MPKI: 1.0694
LLC RFO       ACCESS:     906781  HIT:     188501  MISS:     718280  HIT %:    20.7879  MISS %:    79.2121   MPKI: 14.3656
LLC PREFETCH  ACCESS:     752115  HIT:     399180  MISS:     352935  HIT %:    53.0743  MISS %:    46.9257   MPKI: 7.0587
LLC WRITEBACK ACCESS:    1090473  HIT:     814066  MISS:     276407  HIT %:    74.6526  MISS %:    25.3474   MPKI: 5.52814
LLC LOAD TRANSLATION ACCESS:      26128  HIT:      18298  MISS:       7830  HIT %:    70.0321  MISS %:    29.9679   MPKI: 0.1566
LLC TRANSLATION FROM L1D PREFETCHER ACCESS:        711  HIT:        272  MISS:        439  HIT %:     38.256  MISS %:     61.744   MPKI: 0.00878
LLC PREFETCH  REQUESTED:          0  ISSUED:          0  USEFUL:       6447  USELESS:     353248
LLC USEFUL LOAD PREFETCHES:       6447 PREFETCH ISSUED TO LOWER LEVEL:     352935  ACCURACY: 1.82668
LLC TIMELY PREFETCHES:       6447 LATE PREFETCHES: 0 DROPPED PREFETCHES: 0
LLC PREFETCHES SAME FILL-ORIGIN LEVEL: 0 DIFFERENT FILL-ORIGIN LEVEL: 0
LLC AVERAGE MISS LATENCY: 191.888 cycles
LLC RQ	ACCESS:    1104655	FORWARD:          0	MERGED:          0	TO_CACHE:    1104650
LLC WQ	ACCESS:    1090473	FORWARD:          6	MERGED:          0	TO_CACHE:    1090473
LLC PQ	ACCESS:     752116	FORWARD:          0	MERGED:          0	TO_CACHE:     752115

LLC Dense regions hint to LLC: 0

RAW hits: 1309250
Loads Generated: 12398552
Loads sent to L1D: 11089301
Stores Generated: 8736102
Stores sent to L1D: 8736102
Major fault: 0 Minor fault: 22612
Allocated PAGES: 22612
I-Shadow cache 408 bytes
Touched + WorthPF tables 6144 bytes 
MMA filter 174 bytes 
FNL filter 272 bytes 
TOTAL PREFETCHER STORAGE SIZE: 25174 bytes
CPU 0 L1I next line prefetcher final stats
[Bingo] PHT Access: 127013
[Bingo] PHT Hit PC+Addr: 63930
[Bingo] PHT Hit PC+Offs: 44636
[Bingo] PHT Miss: 18447
[Bingo] Prefetch PC+Addr: 0
[Bingo] Prefetch PC+Offs: 0
[Bingo] Useful PC+Addr: 0
[Bingo] Useful PC+Offs: 0
[Bingo] Useless PC+Addr: 0
[Bingo] Useless PC+Offs: 0
[Bingo] L1 Prefetch per Region: 0
[Bingo] L2 Prefetch per Region: 8.28314
[Bingo] L3 Prefetch per Region: 0
[Bingo] No Prefetch per Region: 23.7169
[Bingo] Number of Voters Mean: 12.6072
[Bingo] Number of Voters SD: 21.6759
PHT read accesses: 1131683
PHT write accesses: 80210
AT read accesses: 750925
AT write accesses: 770169
FT read accesses: 301682
FT write accesses: 127013
PS read accesses: 235566
PS write accesses: 108566
PHT tag read accesses: 3037716
PHT tag write accesses: 144140
AT tag read accesses: 47466066
AT tag write accesses: 831126
FT tag read accesses: 38867846
FT tag write accesses: 330681
PS tag read accesses: 17392002
PS tag write accesses: 341320

DRAM Statistics
 CHANNEL 0
 RQ ROW_BUFFER_HIT:     562488  ROW_BUFFER_MISS:     570431
 DBUS_CONGESTED:        444
 WQ ROW_BUFFER_HIT:     158855  ROW_BUFFER_MISS:     614530  FULL:       4977

 AVG_CONGESTED_CYCLE: 3
 All warmup complete: 2
Channel 0 Bank busy for read cycles: 0
Channel 0 Bank busy for write cycles: 0
Channel 0
Rank 0
0banks busy for read cycles: 36525194
0banks busy for write cycles: 48892
1banks busy for read cycles: 10442757
1banks busy for write cycles: 5874731
2banks busy for read cycles: 5534804
2banks busy for write cycles: 2911970
3banks busy for read cycles: 2962344
3banks busy for write cycles: 1884116
4banks busy for read cycles: 1773501
4banks busy for write cycles: 1377467
5banks busy for read cycles: 708096
5banks busy for write cycles: 1220430
6banks busy for read cycles: 847527
6banks busy for write cycles: 1206973
7banks busy for read cycles: 1614855
7banks busy for write cycles: 1889587
8banks busy for read cycles: 7232474
8banks busy for write cycles: 10013391

CPU 0 Branch Prediction Accuracy: 99.7114% MPKI: 0.47678 Average ROB Occupancy at Mispredict: 91.8027
Branch types
NOT_BRANCH: 41740729 83.4815%
BRANCH_DIRECT_JUMP: 458651 0.917302%
BRANCH_INDIRECT: 48282 0.096564%
BRANCH_CONDITIONAL: 5930847 11.8617%
BRANCH_DIRECT_CALL: 744228 1.48846%
BRANCH_INDIRECT_CALL: 166336 0.332672%
BRANCH_RETURN: 910587 1.82117%
BRANCH_OTHER: 0 0%

DRAM PAGES: 1048576
Allocated PAGES: 22612
