
*** ChampSim Multicore Out-of-Order Simulator ***

Warmup Instructions: 50000000
Simulation Instructions: 50000000
Number of CPUs: 1
LLC sets: 2048
LLC ways: 16
Off-chip DRAM Size: 4096 MB Channels: 1 Width: 64-bit Data Rate: 6400 MT/s
CPU 0 runs ../IPC-traces//server_020.champsimtrace.xz
.xz
BTB has LRU replacement policy
ITLB has LRU replacement policy
DTLB has LRU replacement policy
STLB has LRU replacement policy
CPU 0 L1I next line prefetcher
L1I has LRU replacement policy
IP Table Entries: 64
L1D has LRU replacement policy
Initialize SRRIP state for L2C
Initialize DRRIP state for LLC
Heartbeat CPU 0 instructions: 10000003 cycles: 3176623 heartbeat IPC: 3.148 cumulative IPC: 3.148 (Simulation time: 0 hr 3 min 3 sec) 
Heartbeat CPU 0 instructions: 20000001 cycles: 6347527 heartbeat IPC: 3.15367 cumulative IPC: 3.15083 (Simulation time: 0 hr 6 min 7 sec) 
Heartbeat CPU 0 instructions: 30000000 cycles: 9507319 heartbeat IPC: 3.16476 cumulative IPC: 3.15546 (Simulation time: 0 hr 9 min 10 sec) 
Heartbeat CPU 0 instructions: 40000001 cycles: 12669950 heartbeat IPC: 3.16192 cumulative IPC: 3.15708 (Simulation time: 0 hr 12 min 8 sec) 
Heartbeat CPU 0 instructions: 50000000 cycles: 15855350 heartbeat IPC: 3.13932 cumulative IPC: 3.15351 (Simulation time: 0 hr 14 min 56 sec) 

Warmup complete CPU 0 instructions: 50000004 cycles: 15855351 (Simulation time: 0 hr 14 min 56 sec) 

Heartbeat CPU 0 instructions: 60000000 cycles: 44356689 heartbeat IPC: 0.350861 cumulative IPC: 0.350861 (Simulation time: 0 hr 19 min 54 sec) 
Heartbeat CPU 0 instructions: 70000002 cycles: 72725726 heartbeat IPC: 0.352497 cumulative IPC: 0.351677 (Simulation time: 0 hr 24 min 59 sec) 
Heartbeat CPU 0 instructions: 80000002 cycles: 100949586 heartbeat IPC: 0.35431 cumulative IPC: 0.35255 (Simulation time: 0 hr 31 min 3 sec) 
Heartbeat CPU 0 instructions: 90000003 cycles: 129117616 heartbeat IPC: 0.355012 cumulative IPC: 0.353163 (Simulation time: 0 hr 38 min 45 sec) 
Heartbeat CPU 0 instructions: 100000002 cycles: 157451844 heartbeat IPC: 0.35293 cumulative IPC: 0.353116 (Simulation time: 0 hr 46 min 8 sec) 
Finished CPU 0 instructions: 50000002 cycles: 141596494 cumulative IPC: 0.353116 (Simulation time: 0 hr 46 min 8 sec) 

ChampSim completed all CPUs

Region of Interest Statistics

CPU 0 cumulative IPC: 0.353116 instructions: 50000002 cycles: 141596494

CPU 0 Average Load ROB stall cycles: 3.96737e+07
CPU 0 Fraction of times ROB stalled by Loads: 45.806
CPU 0 Percentage of Load stall cycles in Total stall cycles: 2.27682e+08
Issued all: 83564689
Issued LT all: 78257613
rob_not_full_when_issued_lt_all: 16915725
Issued LT one: 72464199
rob_not_full_when_issued_lt_one: 12904302
HPCA_2009 critical_dynamic_instances_0: 595105
HPCA_2009 unique_critical_ips_0: 4298
multiple_destinations_0: 0
load_to_same_dest_0: 0
low_issue_rate_0: 18944482
total_issue_rate_checked_count_0: 19763369
 Total stall cycles: 124460807
 Total load stall cycles: 283374234536032
Unique Load IPs: 5965
CPU 0 NUM of IPS identified critical: 0
CPU 0 Num of Load IPs stalling ROB: 0
Threshold modification factor: 0
Trouble in retire width: -nan
MaC = Marked as critical.
lt_50_percent_before_Mac: 0
gt_90_percent_before_Mac: 0
gt_75_percent_before_Mac: 0
gt_50_percent_before_Mac: 0
stall_proportion_bin_same_before_after: 0
stall_proportion_bin_lower_before_after: 0
stall_proportion_bin_upper_before_after: 0
average_stall_proportion_before: -nan
average_stall_proportion_after: -nan
Critical IP stalls, total frequency: 0
Non-critical IP stalls, total frequency: 0
Total Freq all stalling IPs: 0
Critical_IP_Detector_Accuracy_70: 0.000232666
Critical_IP_Detector_Accuracy_80: 0.000232666
Critical_IP_Detector_Accuracy_90: 0.000232666
Critical_IP_Detector_Coverage_70: 1
Critical_IP_Detector_Coverage_80: 1
Critical_IP_Detector_Coverage_90: 1
stat_90_percent_critical_ip_stalls_freq: 285388
stat_90_percent_non_critical_ip_stalls_freq: 18446744073709266228
AVERAGE_ROB_Occupancy_90_Percent_Critical_IP_Stalls: 315.915
AVERAGE_ROB_Occupancy_90_Percent_Non_Critical_IP_Stalls: 2.94021e-11
Critical_IP_ROB_Stalls_Bucket_0: 0
Non-critical_IP_ROB_Stalls_Bucket_0: 497661
Critical_IP_ROB_Stalls_Bucket_1: 0
Non-critical_IP_ROB_Stalls_Bucket_1: 618894
Critical_IP_ROB_Stalls_Bucket_2: 0
Non-critical_IP_ROB_Stalls_Bucket_2: 454946
Critical_IP_ROB_Stalls_Bucket_3: 0
Non-critical_IP_ROB_Stalls_Bucket_3: 265325
Critical_IP_ROB_Stalls_Bucket_4: 0
Non-critical_IP_ROB_Stalls_Bucket_4: 164393
Critical_IP_ROB_Stalls_Bucket_5: 0
Non-critical_IP_ROB_Stalls_Bucket_5: 141732
Critical_IP_ROB_Stalls_Bucket_6: 0
Non-critical_IP_ROB_Stalls_Bucket_6: 1128796
0 => IPs accounting for >50 percent of stalls, 1 => 55, 2 => 60, 3 => 65 and so on till 90.
percent50: inf num IPs:  1
percent55: inf num IPs: 1
percent60: inf num IPs: 1
percent65: inf num IPs: 1
percent70: inf num IPs: 1
percent75: inf num IPs: 1
percent80: inf num IPs: 1
percent85: inf num IPs: 1
percent90: inf num IPs: 1
Critical_ROB_Stalls_Percent_0_Bucket_0: 535
Non-critical_ROB_Stalls_Percent_0_Bucket_0: 497126
Critical_ROB_Stalls_Percent_0_Bucket_1: 2884
Non-critical_ROB_Stalls_Percent_0_Bucket_1: 616010
Critical_ROB_Stalls_Percent_0_Bucket_2: 12449
Non-critical_ROB_Stalls_Percent_0_Bucket_2: 442497
Critical_ROB_Stalls_Percent_0_Bucket_3: 18329
Non-critical_ROB_Stalls_Percent_0_Bucket_3: 246996
Critical_ROB_Stalls_Percent_0_Bucket_4: 15187
Non-critical_ROB_Stalls_Percent_0_Bucket_4: 149206
Critical_ROB_Stalls_Percent_0_Bucket_5: 12432
Non-critical_ROB_Stalls_Percent_0_Bucket_5: 129300
Critical_ROB_Stalls_Percent_0_Bucket_6: 223572
Non-critical_ROB_Stalls_Percent_0_Bucket_6: 905224
Critical_ROB_Stalls_Percent_1_Bucket_0: 535
Non-critical_ROB_Stalls_Percent_1_Bucket_0: 497126
Critical_ROB_Stalls_Percent_1_Bucket_1: 2884
Non-critical_ROB_Stalls_Percent_1_Bucket_1: 616010
Critical_ROB_Stalls_Percent_1_Bucket_2: 12449
Non-critical_ROB_Stalls_Percent_1_Bucket_2: 442497
Critical_ROB_Stalls_Percent_1_Bucket_3: 18329
Non-critical_ROB_Stalls_Percent_1_Bucket_3: 246996
Critical_ROB_Stalls_Percent_1_Bucket_4: 15187
Non-critical_ROB_Stalls_Percent_1_Bucket_4: 149206
Critical_ROB_Stalls_Percent_1_Bucket_5: 12432
Non-critical_ROB_Stalls_Percent_1_Bucket_5: 129300
Critical_ROB_Stalls_Percent_1_Bucket_6: 223572
Non-critical_ROB_Stalls_Percent_1_Bucket_6: 905224
Critical_ROB_Stalls_Percent_2_Bucket_0: 535
Non-critical_ROB_Stalls_Percent_2_Bucket_0: 497126
Critical_ROB_Stalls_Percent_2_Bucket_1: 2884
Non-critical_ROB_Stalls_Percent_2_Bucket_1: 616010
Critical_ROB_Stalls_Percent_2_Bucket_2: 12449
Non-critical_ROB_Stalls_Percent_2_Bucket_2: 442497
Critical_ROB_Stalls_Percent_2_Bucket_3: 18329
Non-critical_ROB_Stalls_Percent_2_Bucket_3: 246996
Critical_ROB_Stalls_Percent_2_Bucket_4: 15187
Non-critical_ROB_Stalls_Percent_2_Bucket_4: 149206
Critical_ROB_Stalls_Percent_2_Bucket_5: 12432
Non-critical_ROB_Stalls_Percent_2_Bucket_5: 129300
Critical_ROB_Stalls_Percent_2_Bucket_6: 223572
Non-critical_ROB_Stalls_Percent_2_Bucket_6: 905224
Critical_ROB_Stalls_Percent_3_Bucket_0: 535
Non-critical_ROB_Stalls_Percent_3_Bucket_0: 497126
Critical_ROB_Stalls_Percent_3_Bucket_1: 2884
Non-critical_ROB_Stalls_Percent_3_Bucket_1: 616010
Critical_ROB_Stalls_Percent_3_Bucket_2: 12449
Non-critical_ROB_Stalls_Percent_3_Bucket_2: 442497
Critical_ROB_Stalls_Percent_3_Bucket_3: 18329
Non-critical_ROB_Stalls_Percent_3_Bucket_3: 246996
Critical_ROB_Stalls_Percent_3_Bucket_4: 15187
Non-critical_ROB_Stalls_Percent_3_Bucket_4: 149206
Critical_ROB_Stalls_Percent_3_Bucket_5: 12432
Non-critical_ROB_Stalls_Percent_3_Bucket_5: 129300
Critical_ROB_Stalls_Percent_3_Bucket_6: 223572
Non-critical_ROB_Stalls_Percent_3_Bucket_6: 905224
Critical_ROB_Stalls_Percent_4_Bucket_0: 535
Non-critical_ROB_Stalls_Percent_4_Bucket_0: 497126
Critical_ROB_Stalls_Percent_4_Bucket_1: 2884
Non-critical_ROB_Stalls_Percent_4_Bucket_1: 616010
Critical_ROB_Stalls_Percent_4_Bucket_2: 12449
Non-critical_ROB_Stalls_Percent_4_Bucket_2: 442497
Critical_ROB_Stalls_Percent_4_Bucket_3: 18329
Non-critical_ROB_Stalls_Percent_4_Bucket_3: 246996
Critical_ROB_Stalls_Percent_4_Bucket_4: 15187
Non-critical_ROB_Stalls_Percent_4_Bucket_4: 149206
Critical_ROB_Stalls_Percent_4_Bucket_5: 12432
Non-critical_ROB_Stalls_Percent_4_Bucket_5: 129300
Critical_ROB_Stalls_Percent_4_Bucket_6: 223572
Non-critical_ROB_Stalls_Percent_4_Bucket_6: 905224
Critical_ROB_Stalls_Percent_5_Bucket_0: 535
Non-critical_ROB_Stalls_Percent_5_Bucket_0: 497126
Critical_ROB_Stalls_Percent_5_Bucket_1: 2884
Non-critical_ROB_Stalls_Percent_5_Bucket_1: 616010
Critical_ROB_Stalls_Percent_5_Bucket_2: 12449
Non-critical_ROB_Stalls_Percent_5_Bucket_2: 442497
Critical_ROB_Stalls_Percent_5_Bucket_3: 18329
Non-critical_ROB_Stalls_Percent_5_Bucket_3: 246996
Critical_ROB_Stalls_Percent_5_Bucket_4: 15187
Non-critical_ROB_Stalls_Percent_5_Bucket_4: 149206
Critical_ROB_Stalls_Percent_5_Bucket_5: 12432
Non-critical_ROB_Stalls_Percent_5_Bucket_5: 129300
Critical_ROB_Stalls_Percent_5_Bucket_6: 223572
Non-critical_ROB_Stalls_Percent_5_Bucket_6: 905224
Critical_ROB_Stalls_Percent_6_Bucket_0: 535
Non-critical_ROB_Stalls_Percent_6_Bucket_0: 497126
Critical_ROB_Stalls_Percent_6_Bucket_1: 2884
Non-critical_ROB_Stalls_Percent_6_Bucket_1: 616010
Critical_ROB_Stalls_Percent_6_Bucket_2: 12449
Non-critical_ROB_Stalls_Percent_6_Bucket_2: 442497
Critical_ROB_Stalls_Percent_6_Bucket_3: 18329
Non-critical_ROB_Stalls_Percent_6_Bucket_3: 246996
Critical_ROB_Stalls_Percent_6_Bucket_4: 15187
Non-critical_ROB_Stalls_Percent_6_Bucket_4: 149206
Critical_ROB_Stalls_Percent_6_Bucket_5: 12432
Non-critical_ROB_Stalls_Percent_6_Bucket_5: 129300
Critical_ROB_Stalls_Percent_6_Bucket_6: 223572
Non-critical_ROB_Stalls_Percent_6_Bucket_6: 905224
Critical_ROB_Stalls_Percent_7_Bucket_0: 535
Non-critical_ROB_Stalls_Percent_7_Bucket_0: 497126
Critical_ROB_Stalls_Percent_7_Bucket_1: 2884
Non-critical_ROB_Stalls_Percent_7_Bucket_1: 616010
Critical_ROB_Stalls_Percent_7_Bucket_2: 12449
Non-critical_ROB_Stalls_Percent_7_Bucket_2: 442497
Critical_ROB_Stalls_Percent_7_Bucket_3: 18329
Non-critical_ROB_Stalls_Percent_7_Bucket_3: 246996
Critical_ROB_Stalls_Percent_7_Bucket_4: 15187
Non-critical_ROB_Stalls_Percent_7_Bucket_4: 149206
Critical_ROB_Stalls_Percent_7_Bucket_5: 12432
Non-critical_ROB_Stalls_Percent_7_Bucket_5: 129300
Critical_ROB_Stalls_Percent_7_Bucket_6: 223572
Non-critical_ROB_Stalls_Percent_7_Bucket_6: 905224
Critical_ROB_Stalls_Percent_8_Bucket_0: 535
Non-critical_ROB_Stalls_Percent_8_Bucket_0: 497126
Critical_ROB_Stalls_Percent_8_Bucket_1: 2884
Non-critical_ROB_Stalls_Percent_8_Bucket_1: 616010
Critical_ROB_Stalls_Percent_8_Bucket_2: 12449
Non-critical_ROB_Stalls_Percent_8_Bucket_2: 442497
Critical_ROB_Stalls_Percent_8_Bucket_3: 18329
Non-critical_ROB_Stalls_Percent_8_Bucket_3: 246996
Critical_ROB_Stalls_Percent_8_Bucket_4: 15187
Non-critical_ROB_Stalls_Percent_8_Bucket_4: 149206
Critical_ROB_Stalls_Percent_8_Bucket_5: 12432
Non-critical_ROB_Stalls_Percent_8_Bucket_5: 129300
Critical_ROB_Stalls_Percent_8_Bucket_6: 223572
Non-critical_ROB_Stalls_Percent_8_Bucket_6: 905224
Average ROB occupancy Load Stall Begin: 184.925
Average ROB occupancy Load Stall End: 193.331
Min ROB occupancy Load Stall Begin: 1
Max ROB occupancy Load Stall Begin: 352
Min ROB occupancy Load Stall End: 1
Max ROB occupancy Load Stall End: 352
Average ROB occupancy Critical Load Stall Begin: -nan
Average ROB occupancy Critical Load Stall End: -nan
Min ROB occupancy Critical Load Stall Begin: 400
Max ROB occupancy Critical Load Stall Begin: 0
Min ROB occupancy Critical Load Stall End: 400
Max ROB occupancy Critical Load Stall End: 0
 ROB Load Stall Begin Bucket Count 0: 704476
 ROB Load Stall End Bucket Count 0: 497661
 ROB Critical Load Stall Begin Bucket Count 0: 0
 ROB Critical Load Stall End Bucket Count 0: 0
 ROB Load Stall Begin Bucket Count 1: 551380
 ROB Load Stall End Bucket Count 1: 618894
 ROB Critical Load Stall Begin Bucket Count 1: 0
 ROB Critical Load Stall End Bucket Count 1: 0
 ROB Load Stall Begin Bucket Count 2: 400246
 ROB Load Stall End Bucket Count 2: 454946
 ROB Critical Load Stall Begin Bucket Count 2: 0
 ROB Critical Load Stall End Bucket Count 2: 0
 ROB Load Stall Begin Bucket Count 3: 220508
 ROB Load Stall End Bucket Count 3: 265325
 ROB Critical Load Stall Begin Bucket Count 3: 0
 ROB Critical Load Stall End Bucket Count 3: 0
 ROB Load Stall Begin Bucket Count 4: 150265
 ROB Load Stall End Bucket Count 4: 164393
 ROB Critical Load Stall Begin Bucket Count 4: 0
 ROB Critical Load Stall End Bucket Count 4: 0
 ROB Load Stall Begin Bucket Count 5: 143669
 ROB Load Stall End Bucket Count 5: 141732
 ROB Critical Load Stall Begin Bucket Count 5: 0
 ROB Critical Load Stall End Bucket Count 5: 0
 ROB Load Stall Begin Bucket Count 6: 1101203
 ROB Load Stall End Bucket Count 6: 1128796
 ROB Critical Load Stall Begin Bucket Count 6: 0
 ROB Critical Load Stall End Bucket Count 6: 0
PIST Tag Read Accesses: 0
PIST Read Accesses: 0
PIST Tag Write Accesses: 0
PIST Write Accesses: 0
Criticality detector called times: 0
Max global_stall_cycles_count: 0
Threshold Modified: 0 times, factor: 0
ITLB TOTAL     ACCESS:   10399571  HIT:    9906294  MISS:     493277  HIT %:    95.2568  MISS %:    4.74324   MPKI: 9.86554
ITLB LOAD TRANSLATION ACCESS:    8490443  HIT:    8477908  MISS:      12535  HIT %:    99.8524  MISS %:   0.147637   MPKI: 0.2507
ITLB TRANSLATION FROM L1D PREFETCHER ACCESS:    1909128  HIT:    1428386  MISS:     480742  HIT %:    74.8188  MISS %:    25.1812   MPKI: 9.61484
ITLB PREFETCH  REQUESTED:          0  ISSUED:          0  USEFUL:     423373  USELESS:      57369
ITLB USEFUL LOAD PREFETCHES:     423373 PREFETCH ISSUED TO LOWER LEVEL:          0  ACCURACY: inf
ITLB TIMELY PREFETCHES:     423373 LATE PREFETCHES: 281 DROPPED PREFETCHES: 0
ITLB PREFETCHES SAME FILL-ORIGIN LEVEL: 0 DIFFERENT FILL-ORIGIN LEVEL: 0
ITLB AVERAGE MISS LATENCY: 50472.2 cycles
ITLB RQ	ACCESS:   14899286	FORWARD:          0	MERGED:    4440536	TO_CACHE:   10458750

DTLB TOTAL     ACCESS:   10833948  HIT:   10414029  MISS:     419919  HIT %:     96.124  MISS %:    3.87596   MPKI: 8.39838
DTLB LOAD TRANSLATION ACCESS:   10833948  HIT:   10414029  MISS:     419919  HIT %:     96.124  MISS %:    3.87596   MPKI: 8.39838
DTLB PREFETCH  REQUESTED:          0  ISSUED:          0  USEFUL:          0  USELESS:          0
DTLB USEFUL LOAD PREFETCHES:          0 PREFETCH ISSUED TO LOWER LEVEL:          0  ACCURACY: -nan
DTLB TIMELY PREFETCHES:          0 LATE PREFETCHES: 0 DROPPED PREFETCHES: 0
DTLB PREFETCHES SAME FILL-ORIGIN LEVEL: 0 DIFFERENT FILL-ORIGIN LEVEL: 0
DTLB AVERAGE MISS LATENCY: 17.6451 cycles
DTLB RQ	ACCESS:   16045588	FORWARD:          0	MERGED:    5131903	TO_CACHE:   10913685

STLB TOTAL     ACCESS:     917615  HIT:     884381  MISS:      33234  HIT %:    96.3782  MISS %:    3.62178   MPKI: 0.66468
STLB LOAD TRANSLATION ACCESS:     432173  HIT:     399719  MISS:      32454  HIT %:    92.4905  MISS %:    7.50949   MPKI: 0.64908
STLB TRANSLATION FROM L1D PREFETCHER ACCESS:     485442  HIT:     484662  MISS:        780  HIT %:    99.8393  MISS %:   0.160678   MPKI: 0.0156
STLB PREFETCH  REQUESTED:          0  ISSUED:          0  USEFUL:        480  USELESS:        286
STLB USEFUL LOAD PREFETCHES:        480 PREFETCH ISSUED TO LOWER LEVEL:          0  ACCURACY: inf
STLB TIMELY PREFETCHES:        480 LATE PREFETCHES: 0 DROPPED PREFETCHES: 0
STLB PREFETCHES SAME FILL-ORIGIN LEVEL: 0 DIFFERENT FILL-ORIGIN LEVEL: 0
STLB AVERAGE MISS LATENCY: 115.335 cycles
STLB RQ	ACCESS:     928026	FORWARD:          0	MERGED:      10411	TO_CACHE:     917615

STLB Hit, L1D data hit: 0
STLB Hit, L2C data hit: 0
STLB Hit, LLC data hit: 0
STLB Hit, LLC data miss: 0
STLB STLB hints to L2: 0
L1D TOTAL     ACCESS:   14048361  HIT:   12248059  MISS:    1800302  HIT %:     87.185  MISS %:     12.815   MPKI: 36.006
L1D LOAD      ACCESS:    7385030  HIT:    6555142  MISS:     829888  HIT %:    88.7626  MISS %:    11.2374   MPKI: 16.5978
L1D RFO       ACCESS:    6649059  HIT:    5688039  MISS:     961020  HIT %:    85.5465  MISS %:    14.4535   MPKI: 19.2204
L1D PREFETCH  ACCESS:      14272  HIT:       4878  MISS:       9394  HIT %:    34.1788  MISS %:    65.8212   MPKI: 0.18788
L1D PREFETCH  REQUESTED:      29690  ISSUED:      29665  USEFUL:       2857  USELESS:       6547
L1D USEFUL LOAD PREFETCHES:       2857 PREFETCH ISSUED TO LOWER LEVEL:       9642  ACCURACY: 29.6308
L1D TIMELY PREFETCHES:       2857 LATE PREFETCHES: 246 DROPPED PREFETCHES: 0
L1D PREFETCHES SAME FILL-ORIGIN LEVEL: 9642 DIFFERENT FILL-ORIGIN LEVEL: 0
L1D AVERAGE MISS LATENCY: 10552.4 cycles
L1D RQ	ACCESS:   11049818	FORWARD:          0	MERGED:    3506040	TO_CACHE:    7422496
L1D WQ	ACCESS:    8713551	FORWARD:     121287	MERGED:      90459	TO_CACHE:    8623092
L1D PQ	ACCESS:      14835	FORWARD:          0	MERGED:          0	TO_CACHE:      14830

L1D UNIQUE REGIONS ACCESSED: 0
L1D REGIONS CONFLICTS: 0
L1D Cross Page Prefetch Requests: 0
L1D Same Page Prefetch Requests: 441627
L1D ROI Sum of L1D PQ occupancy: 222449
L1D PREFETCHES PUSHED FROM L2C: 0
L1I TOTAL     ACCESS:   14828196  HIT:   11674431  MISS:    3153765  HIT %:    78.7313  MISS %:    21.2687   MPKI: 63.0753
L1I LOAD      ACCESS:    9908520  HIT:    9889265  MISS:      19255  HIT %:    99.8057  MISS %:   0.194328   MPKI: 0.3851
L1I PREFETCH  ACCESS:    4919676  HIT:    1785166  MISS:    3134510  HIT %:    36.2863  MISS %:    63.7137   MPKI: 62.6902
L1I PREFETCH  REQUESTED:    5157523  ISSUED:    5150304  USEFUL:    2608458  USELESS:     526109
L1I USEFUL LOAD PREFETCHES:    2608458 PREFETCH ISSUED TO LOWER LEVEL:    3140654  ACCURACY: 83.0546
L1I TIMELY PREFETCHES:    2608458 LATE PREFETCHES: 6144 DROPPED PREFETCHES: 0
L1I PREFETCHES SAME FILL-ORIGIN LEVEL: 3140654 DIFFERENT FILL-ORIGIN LEVEL: 0
L1I AVERAGE MISS LATENCY: 165240 cycles
L1I RQ	ACCESS:   14183679	FORWARD:          0	MERGED:    4271390	TO_CACHE:    9912289
L1I PQ	ACCESS:    5150304	FORWARD:          0	MERGED:     163307	TO_CACHE:    4986997

BTB TOTAL     ACCESS:    5333119  HIT:    5067879  MISS:     265240  HIT %:    95.0266  MISS %:    4.97345   MPKI: 5.3048
BTB BRANCH_DIRECT_JUMP	ACCESS:     458219  HIT:     456490  MISS:       1729
BTB BRANCH_INDIRECT	ACCESS:      49088  HIT:      48920  MISS:        168
BTB BRANCH_CONDITIONAL	ACCESS:    3001358  HIT:    2995715  MISS:       5643
BTB BRANCH_DIRECT_CALL	ACCESS:     745129  HIT:     741537  MISS:       3592
BTB BRANCH_INDIRECT_CALL	ACCESS:     167106  HIT:     138209  MISS:      28897
BTB BRANCH_RETURN	ACCESS:     912219  HIT:     687008  MISS:     225211
BTB BRANCH_OTHER ACCESS:          0  HIT:          0  MISS:          0

L2C TOTAL     ACCESS:    6140694  HIT:    4362079  MISS:    1778615  HIT %:    71.0356  MISS %:    28.9644   MPKI: 35.5723
L2C LOAD      ACCESS:     842741  HIT:     206714  MISS:     636027  HIT %:    24.5288  MISS %:    75.4712   MPKI: 12.7205
L2C DATA LOAD MPKI: 12.6308
L2C INSTRUCTION LOAD MPKI: 0.08972
L2C RFO       ACCESS:     961018  HIT:      39929  MISS:     921089  HIT %:    4.15486  MISS %:    95.8451   MPKI: 18.4218
L2C PREFETCH  ACCESS:    3150296  HIT:    2989978  MISS:     160318  HIT %:     94.911  MISS %:    5.08898   MPKI: 3.20636
L2C DATA PREFETCH MPKI: 0.1806
L2C INSTRUCTION PREFETCH MPKI: 3.02576
L2C WRITEBACK ACCESS:    1149837  HIT:    1108852  MISS:      40985  HIT %:    96.4356  MISS %:    3.56442   MPKI: 0.8197
L2C LOAD TRANSLATION ACCESS:      35679  HIT:      16316  MISS:      19363  HIT %:      45.73  MISS %:      54.27   MPKI: 0.38726
L2C TRANSLATION FROM L1D PREFETCHER ACCESS:       1123  HIT:        290  MISS:        833  HIT %:    25.8237  MISS %:    74.1763   MPKI: 0.01666
L2C PREFETCH  REQUESTED:          0  ISSUED:          0  USEFUL:       2222  USELESS:     158618
L2C USEFUL LOAD PREFETCHES:       2222 PREFETCH ISSUED TO LOWER LEVEL:     160318  ACCURACY: 1.386
L2C TIMELY PREFETCHES:       2222 LATE PREFETCHES: 0 DROPPED PREFETCHES: 0
L2C PREFETCHES SAME FILL-ORIGIN LEVEL: 0 DIFFERENT FILL-ORIGIN LEVEL: 0
L2C AVERAGE MISS LATENCY: 154.541 cycles
L2C RQ	ACCESS:    1840573	FORWARD:          0	MERGED:          0	TO_CACHE:    1840561
L2C WQ	ACCESS:    1149837	FORWARD:         12	MERGED:          0	TO_CACHE:    1149837
L2C PQ	ACCESS:    3150296	FORWARD:          0	MERGED:          0	TO_CACHE:    3150296

L2C Instructions Evicting Data 141388
L2C Translations Evicting Data 18376
L2C Data Evicting Data 1406527
L2C Instructions Evicting Instructions 12834
L2C Translations Evicting Instructions 1555
L2C Data Evicting Instructions 137123
L2C Instructions Evicting Translations 1552
L2C Translations Evicting Translations 265
L2C Data Evicting Translations 18010
L2C Dense regions hint from L2: 0
PSCL5 TOTAL     ACCESS:      33234  HIT:      33234  MISS:          0  HIT %:        100  MISS %:          0   MPKI: 0
PSCL5 LOAD TRANSLATION ACCESS:      32454  HIT:      32454  MISS:          0  HIT %:        100  MISS %:          0   MPKI: 0
PSCL5 TRANSLATION FROM L1D PREFETCHER ACCESS:        780  HIT:        780  MISS:          0  HIT %:        100  MISS %:          0   MPKI: 0
PSCL5 PREFETCH  REQUESTED:          0  ISSUED:          0  USEFUL:          0  USELESS:          0
PSCL5 USEFUL LOAD PREFETCHES:          0 PREFETCH ISSUED TO LOWER LEVEL:          0  ACCURACY: -nan
PSCL5 TIMELY PREFETCHES:          0 LATE PREFETCHES: 0 DROPPED PREFETCHES: 0
PSCL5 PREFETCHES SAME FILL-ORIGIN LEVEL: 0 DIFFERENT FILL-ORIGIN LEVEL: 0

PSCL4 TOTAL     ACCESS:      32597  HIT:      32498  MISS:         99  HIT %:    99.6963  MISS %:   0.303709   MPKI: 0.00198
PSCL4 LOAD TRANSLATION ACCESS:      31849  HIT:      31750  MISS:         99  HIT %:    99.6892  MISS %:   0.310842   MPKI: 0.00198
PSCL4 TRANSLATION FROM L1D PREFETCHER ACCESS:        748  HIT:        748  MISS:          0  HIT %:        100  MISS %:          0   MPKI: 0
PSCL4 PREFETCH  REQUESTED:          0  ISSUED:          0  USEFUL:          0  USELESS:          0
PSCL4 USEFUL LOAD PREFETCHES:          0 PREFETCH ISSUED TO LOWER LEVEL:          0  ACCURACY: -nan
PSCL4 TIMELY PREFETCHES:          0 LATE PREFETCHES: 0 DROPPED PREFETCHES: 0
PSCL4 PREFETCHES SAME FILL-ORIGIN LEVEL: 0 DIFFERENT FILL-ORIGIN LEVEL: 0

PSCL3 TOTAL     ACCESS:      32926  HIT:      32827  MISS:         99  HIT %:    99.6993  MISS %:   0.300674   MPKI: 0.00198
PSCL3 LOAD TRANSLATION ACCESS:      32178  HIT:      32079  MISS:         99  HIT %:    99.6923  MISS %:   0.307664   MPKI: 0.00198
PSCL3 TRANSLATION FROM L1D PREFETCHER ACCESS:        748  HIT:        748  MISS:          0  HIT %:        100  MISS %:          0   MPKI: 0
PSCL3 PREFETCH  REQUESTED:          0  ISSUED:          0  USEFUL:          0  USELESS:          0
PSCL3 USEFUL LOAD PREFETCHES:          0 PREFETCH ISSUED TO LOWER LEVEL:          0  ACCURACY: -nan
PSCL3 TIMELY PREFETCHES:          0 LATE PREFETCHES: 0 DROPPED PREFETCHES: 0
PSCL3 PREFETCHES SAME FILL-ORIGIN LEVEL: 0 DIFFERENT FILL-ORIGIN LEVEL: 0

PSCL2 TOTAL     ACCESS:      33234  HIT:      29841  MISS:       3393  HIT %:    89.7906  MISS %:    10.2094   MPKI: 0.06786
PSCL2 LOAD TRANSLATION ACCESS:      32741  HIT:      29348  MISS:       3393  HIT %:    89.6368  MISS %:    10.3632   MPKI: 0.06786
PSCL2 TRANSLATION FROM L1D PREFETCHER ACCESS:        493  HIT:        493  MISS:          0  HIT %:        100  MISS %:          0   MPKI: 0
PSCL2 PREFETCH  REQUESTED:          0  ISSUED:          0  USEFUL:          0  USELESS:          0
PSCL2 USEFUL LOAD PREFETCHES:          0 PREFETCH ISSUED TO LOWER LEVEL:          0  ACCURACY: -nan
PSCL2 TIMELY PREFETCHES:          0 LATE PREFETCHES: 0 DROPPED PREFETCHES: 0
PSCL2 PREFETCHES SAME FILL-ORIGIN LEVEL: 0 DIFFERENT FILL-ORIGIN LEVEL: 0

LLC TOTAL     ACCESS:    2807891  HIT:    1110079  MISS:    1697812  HIT %:    39.5343  MISS %:    60.4657   MPKI: 33.9562
LLC LOAD      ACCESS:     636023  HIT:     290279  MISS:     345744  HIT %:    45.6397  MISS %:    54.3603   MPKI: 6.91488
LLC RFO       ACCESS:     921089  HIT:     256721  MISS:     664368  HIT %:    27.8715  MISS %:    72.1285   MPKI: 13.2874
LLC PREFETCH  ACCESS:     160318  HIT:     141159  MISS:      19159  HIT %:    88.0494  MISS %:    11.9506   MPKI: 0.38318
LLC WRITEBACK ACCESS:    1070265  HIT:     408059  MISS:     662206  HIT %:    38.1269  MISS %:    61.8731   MPKI: 13.2441
LLC LOAD TRANSLATION ACCESS:      19363  HIT:      13597  MISS:       5766  HIT %:    70.2216  MISS %:    29.7784   MPKI: 0.11532
LLC TRANSLATION FROM L1D PREFETCHER ACCESS:        833  HIT:        264  MISS:        569  HIT %:    31.6927  MISS %:    68.3073   MPKI: 0.01138
LLC PREFETCH  REQUESTED:          0  ISSUED:          0  USEFUL:        196  USELESS:      20050
LLC USEFUL LOAD PREFETCHES:        196 PREFETCH ISSUED TO LOWER LEVEL:      19159  ACCURACY: 1.02302
LLC TIMELY PREFETCHES:        196 LATE PREFETCHES: 0 DROPPED PREFETCHES: 0
LLC PREFETCHES SAME FILL-ORIGIN LEVEL: 0 DIFFERENT FILL-ORIGIN LEVEL: 0
LLC AVERAGE MISS LATENCY: 129.706 cycles
LLC RQ	ACCESS:    1577312	FORWARD:          0	MERGED:          0	TO_CACHE:    1577308
LLC WQ	ACCESS:    1070265	FORWARD:          4	MERGED:          0	TO_CACHE:    1070265
LLC PQ	ACCESS:     160318	FORWARD:          0	MERGED:          0	TO_CACHE:     160318

LLC Dense regions hint to LLC: 0

RAW hits: 1355054
Loads Generated: 12404873
Loads sent to L1D: 11049818
Stores Generated: 8713494
Stores sent to L1D: 8713551
Major fault: 0 Minor fault: 22230
Allocated PAGES: 22230
I-Shadow cache 408 bytes
Touched + WorthPF tables 6144 bytes 
MMA filter 174 bytes 
FNL filter 272 bytes 
TOTAL PREFETCHER STORAGE SIZE: 25174 bytes
CPU 0 L1I next line prefetcher final stats

stream: 
stream:times selected: 357654
stream:pref_filled: 252053
stream:pref_useful: 218400
stream:pref_late: 1965
stream:misses: 371
stream:misses_by_poll: 0

CS: 
CS:times selected: 109638
CS:pref_filled: 1157
CS:pref_useful: 1087
CS:pref_late: 34
CS:misses: 383
CS:misses_by_poll: 0

CPLX: 
CPLX:times selected: 247349
CPLX:pref_filled: 36186
CPLX:pref_useful: 29896
CPLX:pref_late: 99
CPLX:misses: 2826
CPLX:misses_by_poll: 0

NL_L1: 
NL:times selected: 151
NL:pref_filled: 64
NL:pref_useful: 62
NL:pref_late: 8
NL:misses: 2
NL:misses_by_poll: 0

total selections: 714792
total_filled: 9394
total_useful: 2857
total_late: 2145
total_polluted: 0
total_misses_after_warmup: 8389
conflicts: 40957
Degree Incremented Times: 6869
Degree Decremented Times: 0

L1 IP Table Write Accesses: 55937
L1 IP Table Read Accesses: 14980
L1 RST Write Accesses: 9945
L1 RST Read Accesses: 19890
L1 CSPT Write Accesses: 9945
L1 CSPT Read Accesses: 21109
L1 RR Filter Tag Write Accesses: 14860
L1 RR Filter Tag Read Accesses: 2386854
L1 IP Table Tag Write Accesses: 99219
L1 IP Table Tag Read Accesses: 99219
L1 RST Tag Write Accesses: 0
L1 RST Tag Read Accesses: 86237
L1 RR Filter Write Accesses: 0
L1 RR Filter Read Accesses: 82725
test: 30728

DRAM Statistics
 CHANNEL 0
 RQ ROW_BUFFER_HIT:     500244  ROW_BUFFER_MISS:     535351
 DBUS_CONGESTED:        626
 WQ ROW_BUFFER_HIT:     293477  ROW_BUFFER_MISS:     403777  FULL:      14746

 AVG_CONGESTED_CYCLE: 3
 All warmup complete: 2
Channel 0 Bank busy for read cycles: 0
Channel 0 Bank busy for write cycles: 0
Channel 0
Rank 0
0banks busy for read cycles: 41651522
0banks busy for write cycles: 102624
1banks busy for read cycles: 40403155
1banks busy for write cycles: 21629820
2banks busy for read cycles: 6278823
2banks busy for write cycles: 9169277
3banks busy for read cycles: 869244
3banks busy for write cycles: 3519255
4banks busy for read cycles: 1432241
4banks busy for write cycles: 1575763
5banks busy for read cycles: 395118
5banks busy for write cycles: 949193
6banks busy for read cycles: 529272
6banks busy for write cycles: 722012
7banks busy for read cycles: 895508
7banks busy for write cycles: 995931
8banks busy for read cycles: 4252733
8banks busy for write cycles: 6225004

CPU 0 Branch Prediction Accuracy: 99.712% MPKI: 0.47638 Average ROB Occupancy at Mispredict: 98.4291
Branch types
NOT_BRANCH: 41729379 83.4588%
BRANCH_DIRECT_JUMP: 458219 0.916438%
BRANCH_INDIRECT: 49088 0.098176%
BRANCH_CONDITIONAL: 5938510 11.877%
BRANCH_DIRECT_CALL: 745129 1.49026%
BRANCH_INDIRECT_CALL: 167106 0.334212%
BRANCH_RETURN: 912219 1.82444%
BRANCH_OTHER: 0 0%

DRAM PAGES: 1048576
Allocated PAGES: 22230
