
*** ChampSim Multicore Out-of-Order Simulator ***

Warmup Instructions: 50000000
Simulation Instructions: 50000000
Number of CPUs: 1
LLC sets: 2048
LLC ways: 16
Off-chip DRAM Size: 4096 MB Channels: 1 Width: 64-bit Data Rate: 6400 MT/s
CPU 0 runs ../IPC-traces//server_035.champsimtrace.xz
.xz
NUM_OF_IPS_IN_CRITICAL_IP_TRAINING: 64
NUM_OF_CRITICAL_IP_TRAINING_TABLE_WAYS: 2
NUM_OF_CRITICAL_IP_TRAINING_TABLE_SETS: 32
WOBBLY_CRITICAL_IP_CACHE_SETS: 32
WOBBLY_CRITICAL_IP_CACHE_WAYS: 4
BTB has LRU replacement policy
ITLB has LRU replacement policy
DTLB has LRU replacement policy
STLB has LRU replacement policy
CPU 0 L1I next line prefetcher
L1I has LRU replacement policy
IP Table Entries: 64
L1D has LRU replacement policy
IP_Table L2 entries: 64
Initialize SRRIP state for L2C
Initialize DRRIP state for LLC
Heartbeat CPU 0 instructions: 10000001 cycles: 2764716 heartbeat IPC: 3.61701 cumulative IPC: 3.61701 (Simulation time: 0 hr 3 min 37 sec) 
Heartbeat CPU 0 instructions: 20000002 cycles: 5526144 heartbeat IPC: 3.62132 cumulative IPC: 3.61916 (Simulation time: 0 hr 6 min 43 sec) 
Heartbeat CPU 0 instructions: 30000003 cycles: 8288131 heartbeat IPC: 3.62058 cumulative IPC: 3.61963 (Simulation time: 0 hr 9 min 14 sec) 
Heartbeat CPU 0 instructions: 40000003 cycles: 11050980 heartbeat IPC: 3.61945 cumulative IPC: 3.61959 (Simulation time: 0 hr 11 min 42 sec) 
Heartbeat CPU 0 instructions: 50000003 cycles: 13810882 heartbeat IPC: 3.62332 cumulative IPC: 3.62033 (Simulation time: 0 hr 14 min 8 sec) 

Warmup complete CPU 0 instructions: 50000003 cycles: 13810882 (Simulation time: 0 hr 14 min 8 sec) 

% increase in all ip prefetch 529.572
% increase in all ip prefetch -0.0894818
Heartbeat CPU 0 instructions: 60000001 cycles: 28544069 heartbeat IPC: 0.67874 cumulative IPC: 0.67874 (Simulation time: 0 hr 16 min 29 sec) 
Heartbeat CPU 0 instructions: 70000003 cycles: 42997224 heartbeat IPC: 0.691891 cumulative IPC: 0.685252 (Simulation time: 0 hr 18 min 50 sec) 
Heartbeat CPU 0 instructions: 80000003 cycles: 57542800 heartbeat IPC: 0.687494 cumulative IPC: 0.685998 (Simulation time: 0 hr 21 min 11 sec) 
Heartbeat CPU 0 instructions: 90000001 cycles: 71622091 heartbeat IPC: 0.710263 cumulative IPC: 0.691907 (Simulation time: 0 hr 23 min 26 sec) 
Heartbeat CPU 0 instructions: 100000002 cycles: 86178958 heartbeat IPC: 0.686961 cumulative IPC: 0.690912 (Simulation time: 0 hr 25 min 51 sec) 
Finished CPU 0 instructions: 50000003 cycles: 72368077 cumulative IPC: 0.690912 (Simulation time: 0 hr 25 min 51 sec) 

ChampSim completed all CPUs

Region of Interest Statistics

CPU 0 cumulative IPC: 0.690912 instructions: 50000003 cycles: 72368077

CPU 0 Average Load ROB stall cycles: 5.37826e+06
CPU 0 Fraction of times ROB stalled by Loads: 10.6769
CPU 0 Percentage of Load stall cycles in Total stall cycles: 7.08402e+07
 Total stall cycles: 42115880
 Total load stall cycles: 29834972189691
CPU 0 NUM of IPS identified critical: 8
CPU 0 Num of Load IPs stalling ROB: 2581
Threshold modification factor: -1
Max PIST entries: 64
Min PIST entries: 0
Avg PIST entries: 31.99
Trouble in retire width: 0.620895
MaC = Marked as critical.
lt_50_percent_before_Mac: 5
gt_90_percent_before_Mac: 0
gt_75_percent_before_Mac: 0
gt_50_percent_before_Mac: 3
stall_proportion_bin_same_before_after: 0
stall_proportion_bin_lower_before_after: 0
stall_proportion_bin_upper_before_after: 0
average_stall_proportion_before: 0.192381
average_stall_proportion_after: 0.190479
Critical IP stalls, total frequency: 4695
Non-critical IP stalls, total frequency: 544599
Critical_IP_ROB_Stalls_Bucket_0: 93
Non-critical_IP_ROB_Stalls_Bucket_0: 420971
Critical_IP_ROB_Stalls_Bucket_1: 20
Non-critical_IP_ROB_Stalls_Bucket_1: 104966
Critical_IP_ROB_Stalls_Bucket_2: 24
Non-critical_IP_ROB_Stalls_Bucket_2: 36235
Critical_IP_ROB_Stalls_Bucket_3: 7
Non-critical_IP_ROB_Stalls_Bucket_3: 18187
Critical_IP_ROB_Stalls_Bucket_4: 9
Non-critical_IP_ROB_Stalls_Bucket_4: 3545
Critical_IP_ROB_Stalls_Bucket_5: 116
Non-critical_IP_ROB_Stalls_Bucket_5: 2126
Critical_IP_ROB_Stalls_Bucket_6: 4426
Non-critical_IP_ROB_Stalls_Bucket_6: 1558
0 => IPs accounting for >50 percent of stalls, 1 => 55, 2 => 60, 3 => 65 and so on till 90.
percent50: 50.0552 num IPs:123
percent55: 55.051 num IPs:146
percent60: 60.1714 num IPs:171
percent65: 65.1234 num IPs:197
percent70: 70.1002 num IPs:226
percent75: 75.1077 num IPs:260
percent80: 80.0446 num IPs:300
percent85: 85.0088 num IPs:355
percent90: 90.0023 num IPs:439
Critical_ROB_Stalls_Percent_0_Bucket_0: 227203
Non-critical_ROB_Stalls_Percent_0_Bucket_0: 193861
Critical_ROB_Stalls_Percent_0_Bucket_1: 30833
Non-critical_ROB_Stalls_Percent_0_Bucket_1: 74153
Critical_ROB_Stalls_Percent_0_Bucket_2: 9219
Non-critical_ROB_Stalls_Percent_0_Bucket_2: 27040
Critical_ROB_Stalls_Percent_0_Bucket_3: 6298
Non-critical_ROB_Stalls_Percent_0_Bucket_3: 11896
Critical_ROB_Stalls_Percent_0_Bucket_4: 692
Non-critical_ROB_Stalls_Percent_0_Bucket_4: 2862
Critical_ROB_Stalls_Percent_0_Bucket_5: 684
Non-critical_ROB_Stalls_Percent_0_Bucket_5: 1558
Critical_ROB_Stalls_Percent_0_Bucket_6: 21
Non-critical_ROB_Stalls_Percent_0_Bucket_6: 5963
Critical_ROB_Stalls_Percent_1_Bucket_0: 246572
Non-critical_ROB_Stalls_Percent_1_Bucket_0: 174492
Critical_ROB_Stalls_Percent_1_Bucket_1: 33754
Non-critical_ROB_Stalls_Percent_1_Bucket_1: 71232
Critical_ROB_Stalls_Percent_1_Bucket_2: 11663
Non-critical_ROB_Stalls_Percent_1_Bucket_2: 24596
Critical_ROB_Stalls_Percent_1_Bucket_3: 8413
Non-critical_ROB_Stalls_Percent_1_Bucket_3: 9781
Critical_ROB_Stalls_Percent_1_Bucket_4: 911
Non-critical_ROB_Stalls_Percent_1_Bucket_4: 2643
Critical_ROB_Stalls_Percent_1_Bucket_5: 1058
Non-critical_ROB_Stalls_Percent_1_Bucket_5: 1184
Critical_ROB_Stalls_Percent_1_Bucket_6: 21
Non-critical_ROB_Stalls_Percent_1_Bucket_6: 5963
Critical_ROB_Stalls_Percent_2_Bucket_0: 266589
Non-critical_ROB_Stalls_Percent_2_Bucket_0: 154475
Critical_ROB_Stalls_Percent_2_Bucket_1: 38405
Non-critical_ROB_Stalls_Percent_2_Bucket_1: 66581
Critical_ROB_Stalls_Percent_2_Bucket_2: 14404
Non-critical_ROB_Stalls_Percent_2_Bucket_2: 21855
Critical_ROB_Stalls_Percent_2_Bucket_3: 8704
Non-critical_ROB_Stalls_Percent_2_Bucket_3: 9490
Critical_ROB_Stalls_Percent_2_Bucket_4: 1331
Non-critical_ROB_Stalls_Percent_2_Bucket_4: 2223
Critical_ROB_Stalls_Percent_2_Bucket_5: 1063
Non-critical_ROB_Stalls_Percent_2_Bucket_5: 1179
Critical_ROB_Stalls_Percent_2_Bucket_6: 22
Non-critical_ROB_Stalls_Percent_2_Bucket_6: 5962
Critical_ROB_Stalls_Percent_3_Bucket_0: 284753
Non-critical_ROB_Stalls_Percent_3_Bucket_0: 136311
Critical_ROB_Stalls_Percent_3_Bucket_1: 43041
Non-critical_ROB_Stalls_Percent_3_Bucket_1: 61945
Critical_ROB_Stalls_Percent_3_Bucket_2: 15659
Non-critical_ROB_Stalls_Percent_3_Bucket_2: 20600
Critical_ROB_Stalls_Percent_3_Bucket_3: 9447
Non-critical_ROB_Stalls_Percent_3_Bucket_3: 8747
Critical_ROB_Stalls_Percent_3_Bucket_4: 1609
Non-critical_ROB_Stalls_Percent_3_Bucket_4: 1945
Critical_ROB_Stalls_Percent_3_Bucket_5: 1153
Non-critical_ROB_Stalls_Percent_3_Bucket_5: 1089
Critical_ROB_Stalls_Percent_3_Bucket_6: 2057
Non-critical_ROB_Stalls_Percent_3_Bucket_6: 3927
Critical_ROB_Stalls_Percent_4_Bucket_0: 300746
Non-critical_ROB_Stalls_Percent_4_Bucket_0: 120318
Critical_ROB_Stalls_Percent_4_Bucket_1: 52556
Non-critical_ROB_Stalls_Percent_4_Bucket_1: 52430
Critical_ROB_Stalls_Percent_4_Bucket_2: 16570
Non-critical_ROB_Stalls_Percent_4_Bucket_2: 19689
Critical_ROB_Stalls_Percent_4_Bucket_3: 10259
Non-critical_ROB_Stalls_Percent_4_Bucket_3: 7935
Critical_ROB_Stalls_Percent_4_Bucket_4: 1679
Non-critical_ROB_Stalls_Percent_4_Bucket_4: 1875
Critical_ROB_Stalls_Percent_4_Bucket_5: 1187
Non-critical_ROB_Stalls_Percent_4_Bucket_5: 1055
Critical_ROB_Stalls_Percent_4_Bucket_6: 2059
Non-critical_ROB_Stalls_Percent_4_Bucket_6: 3925
Critical_ROB_Stalls_Percent_5_Bucket_0: 317204
Non-critical_ROB_Stalls_Percent_5_Bucket_0: 103860
Critical_ROB_Stalls_Percent_5_Bucket_1: 59069
Non-critical_ROB_Stalls_Percent_5_Bucket_1: 45917
Critical_ROB_Stalls_Percent_5_Bucket_2: 18136
Non-critical_ROB_Stalls_Percent_5_Bucket_2: 18123
Critical_ROB_Stalls_Percent_5_Bucket_3: 10970
Non-critical_ROB_Stalls_Percent_5_Bucket_3: 7224
Critical_ROB_Stalls_Percent_5_Bucket_4: 1919
Non-critical_ROB_Stalls_Percent_5_Bucket_4: 1635
Critical_ROB_Stalls_Percent_5_Bucket_5: 1592
Non-critical_ROB_Stalls_Percent_5_Bucket_5: 650
Critical_ROB_Stalls_Percent_5_Bucket_6: 3672
Non-critical_ROB_Stalls_Percent_5_Bucket_6: 2312
Critical_ROB_Stalls_Percent_6_Bucket_0: 335008
Non-critical_ROB_Stalls_Percent_6_Bucket_0: 86056
Critical_ROB_Stalls_Percent_6_Bucket_1: 64790
Non-critical_ROB_Stalls_Percent_6_Bucket_1: 40196
Critical_ROB_Stalls_Percent_6_Bucket_2: 20242
Non-critical_ROB_Stalls_Percent_6_Bucket_2: 16017
Critical_ROB_Stalls_Percent_6_Bucket_3: 11955
Non-critical_ROB_Stalls_Percent_6_Bucket_3: 6239
Critical_ROB_Stalls_Percent_6_Bucket_4: 2401
Non-critical_ROB_Stalls_Percent_6_Bucket_4: 1153
Critical_ROB_Stalls_Percent_6_Bucket_5: 1605
Non-critical_ROB_Stalls_Percent_6_Bucket_5: 637
Critical_ROB_Stalls_Percent_6_Bucket_6: 3679
Non-critical_ROB_Stalls_Percent_6_Bucket_6: 2305
Critical_ROB_Stalls_Percent_7_Bucket_0: 348769
Non-critical_ROB_Stalls_Percent_7_Bucket_0: 72295
Critical_ROB_Stalls_Percent_7_Bucket_1: 72604
Non-critical_ROB_Stalls_Percent_7_Bucket_1: 32382
Critical_ROB_Stalls_Percent_7_Bucket_2: 24065
Non-critical_ROB_Stalls_Percent_7_Bucket_2: 12194
Critical_ROB_Stalls_Percent_7_Bucket_3: 13037
Non-critical_ROB_Stalls_Percent_7_Bucket_3: 5157
Critical_ROB_Stalls_Percent_7_Bucket_4: 2440
Non-critical_ROB_Stalls_Percent_7_Bucket_4: 1114
Critical_ROB_Stalls_Percent_7_Bucket_5: 1881
Non-critical_ROB_Stalls_Percent_7_Bucket_5: 361
Critical_ROB_Stalls_Percent_7_Bucket_6: 4152
Non-critical_ROB_Stalls_Percent_7_Bucket_6: 1832
Critical_ROB_Stalls_Percent_8_Bucket_0: 365584
Non-critical_ROB_Stalls_Percent_8_Bucket_0: 55480
Critical_ROB_Stalls_Percent_8_Bucket_1: 78588
Non-critical_ROB_Stalls_Percent_8_Bucket_1: 26398
Critical_ROB_Stalls_Percent_8_Bucket_2: 26686
Non-critical_ROB_Stalls_Percent_8_Bucket_2: 9573
Critical_ROB_Stalls_Percent_8_Bucket_3: 14520
Non-critical_ROB_Stalls_Percent_8_Bucket_3: 3674
Critical_ROB_Stalls_Percent_8_Bucket_4: 2755
Non-critical_ROB_Stalls_Percent_8_Bucket_4: 799
Critical_ROB_Stalls_Percent_8_Bucket_5: 2070
Non-critical_ROB_Stalls_Percent_8_Bucket_5: 172
Critical_ROB_Stalls_Percent_8_Bucket_6: 4174
Non-critical_ROB_Stalls_Percent_8_Bucket_6: 1810
Average ROB occupancy Load Stall Begin: 40.3508
Average ROB occupancy Load Stall End: 47.5556
Min ROB occupancy Load Stall Begin: 1
Max ROB occupancy Load Stall Begin: 351
Min ROB occupancy Load Stall End: 1
Max ROB occupancy Load Stall End: 352
Average ROB occupancy Critical Load Stall Begin: 315.319
Average ROB occupancy Critical Load Stall End: 340.904
Min ROB occupancy Critical Load Stall Begin: 13
Max ROB occupancy Critical Load Stall Begin: 351
Min ROB occupancy Critical Load Stall End: 13
Max ROB occupancy Critical Load Stall End: 352
 ROB Load Stall Begin Bucket Count 0: 449912
 ROB Load Stall End Bucket Count 0: 421064
 ROB Critical Load Stall Begin Bucket Count 0: 94
 ROB Critical Load Stall End Bucket Count 0: 83
 ROB Load Stall Begin Bucket Count 1: 91948
 ROB Load Stall End Bucket Count 1: 104986
 ROB Critical Load Stall Begin Bucket Count 1: 8
 ROB Critical Load Stall End Bucket Count 1: 15
 ROB Load Stall Begin Bucket Count 2: 31830
 ROB Load Stall End Bucket Count 2: 36259
 ROB Critical Load Stall Begin Bucket Count 2: 15
 ROB Critical Load Stall End Bucket Count 2: 14
 ROB Load Stall Begin Bucket Count 3: 10170
 ROB Load Stall End Bucket Count 3: 18194
 ROB Critical Load Stall Begin Bucket Count 3: 17
 ROB Critical Load Stall End Bucket Count 3: 4
 ROB Load Stall Begin Bucket Count 4: 2034
 ROB Load Stall End Bucket Count 4: 3554
 ROB Critical Load Stall Begin Bucket Count 4: 21
 ROB Critical Load Stall End Bucket Count 4: 8
 ROB Load Stall Begin Bucket Count 5: 988
 ROB Load Stall End Bucket Count 5: 2242
 ROB Critical Load Stall Begin Bucket Count 5: 490
 ROB Critical Load Stall End Bucket Count 5: 79
 ROB Load Stall Begin Bucket Count 6: 5401
 ROB Load Stall End Bucket Count 6: 5984
 ROB Critical Load Stall Begin Bucket Count 6: 3272
 ROB Critical Load Stall End Bucket Count 6: 3714
PIST Tag Read Accesses: 256254
PIST Read Accesses: 128127
PIST Tag Write Accesses: 256254
PIST Write Accesses: 128127
Criticality detector called times: 296350
Max global_stall_cycles_count: 388338
Threshold Modified: 1 times, factor: -1
ITLB TOTAL     ACCESS:   10501025  HIT:    9902226  MISS:     598799  HIT %:    94.2977  MISS %:    5.70229   MPKI: 11.976
ITLB LOAD TRANSLATION ACCESS:    8282486  HIT:    8263021  MISS:      19465  HIT %:     99.765  MISS %:   0.235014   MPKI: 0.3893
ITLB TRANSLATION FROM L1D PREFETCHER ACCESS:    2218539  HIT:    1639205  MISS:     579334  HIT %:    73.8867  MISS %:    26.1133   MPKI: 11.5867
ITLB PREFETCH  REQUESTED:          0  ISSUED:          0  USEFUL:     519404  USELESS:      59934
ITLB USEFUL LOAD PREFETCHES:     519404 PREFETCH ISSUED TO LOWER LEVEL:          0  ACCURACY: inf
ITLB TIMELY PREFETCHES:     519404 LATE PREFETCHES: 76 DROPPED PREFETCHES: 1
ITLB PREFETCHES SAME FILL-ORIGIN LEVEL: 0 DIFFERENT FILL-ORIGIN LEVEL: 0
ITLB AVERAGE MISS LATENCY: 5847.22 cycles
ITLB RQ	ACCESS:   15866203	FORWARD:          0	MERGED:    5322287	TO_CACHE:   10543916

DTLB TOTAL     ACCESS:    9405419  HIT:    8957402  MISS:     448017  HIT %:    95.2366  MISS %:    4.76339   MPKI: 8.96034
DTLB LOAD TRANSLATION ACCESS:    9405419  HIT:    8957402  MISS:     448017  HIT %:    95.2366  MISS %:    4.76339   MPKI: 8.96034
DTLB PREFETCH  REQUESTED:          0  ISSUED:          0  USEFUL:          0  USELESS:          0
DTLB USEFUL LOAD PREFETCHES:          0 PREFETCH ISSUED TO LOWER LEVEL:          0  ACCURACY: -nan
DTLB TIMELY PREFETCHES:          0 LATE PREFETCHES: 0 DROPPED PREFETCHES: 0
DTLB PREFETCHES SAME FILL-ORIGIN LEVEL: 0 DIFFERENT FILL-ORIGIN LEVEL: 0
DTLB AVERAGE MISS LATENCY: 10.4038 cycles
DTLB RQ	ACCESS:   13337882	FORWARD:          0	MERGED:    3914549	TO_CACHE:    9423333

STLB TOTAL     ACCESS:    1183747  HIT:    1173958  MISS:       9789  HIT %:     99.173  MISS %:    0.82695   MPKI: 0.19578
STLB LOAD TRANSLATION ACCESS:     467406  HIT:     457906  MISS:       9500  HIT %:    97.9675  MISS %:    2.03249   MPKI: 0.19
STLB TRANSLATION FROM L1D PREFETCHER ACCESS:     716341  HIT:     716052  MISS:        289  HIT %:    99.9597  MISS %:  0.0403439   MPKI: 0.00578
STLB PREFETCH  REQUESTED:          0  ISSUED:          0  USEFUL:        227  USELESS:         56
STLB USEFUL LOAD PREFETCHES:        227 PREFETCH ISSUED TO LOWER LEVEL:          0  ACCURACY: inf
STLB TIMELY PREFETCHES:        227 LATE PREFETCHES: 0 DROPPED PREFETCHES: 1
STLB PREFETCHES SAME FILL-ORIGIN LEVEL: 0 DIFFERENT FILL-ORIGIN LEVEL: 0
STLB AVERAGE MISS LATENCY: 71.5748 cycles
STLB RQ	ACCESS:    1267028	FORWARD:          0	MERGED:      83280	TO_CACHE:    1183748

STLB Hit, L1D data hit: 0
STLB Hit, L2C data hit: 0
STLB Hit, LLC data hit: 0
STLB Hit, LLC data miss: 0
STLB STLB hints to L2: 0
L1D TOTAL     ACCESS:   13389749  HIT:   12538273  MISS:     851476  HIT %:    93.6408  MISS %:    6.35916   MPKI: 17.0295
L1D LOAD      ACCESS:    6939921  HIT:    6321635  MISS:     618286  HIT %:    91.0909  MISS %:    8.90912   MPKI: 12.3657
L1D RFO       ACCESS:    6243218  HIT:    6130491  MISS:     112727  HIT %:    98.1944  MISS %:    1.80559   MPKI: 2.25454
L1D PREFETCH  ACCESS:     206610  HIT:      86147  MISS:     120463  HIT %:    41.6955  MISS %:    58.3045   MPKI: 2.40926
L1D PREFETCH  REQUESTED:     440836  ISSUED:     440830  USEFUL:      17311  USELESS:     103141
L1D USEFUL LOAD PREFETCHES:      17311 PREFETCH ISSUED TO LOWER LEVEL:     122825  ACCURACY: 14.094
L1D TIMELY PREFETCHES:      17311 LATE PREFETCHES: 2188 DROPPED PREFETCHES: 0
L1D PREFETCHES SAME FILL-ORIGIN LEVEL: 122825 DIFFERENT FILL-ORIGIN LEVEL: 0
L1D AVERAGE MISS LATENCY: 120749 cycles
L1D RQ	ACCESS:   10499592	FORWARD:          0	MERGED:    3374304	TO_CACHE:    6967740
L1D WQ	ACCESS:    6507513	FORWARD:     157956	MERGED:     137371	TO_CACHE:    6370142
L1D PQ	ACCESS:     220619	FORWARD:          0	MERGED:          0	TO_CACHE:     220211

L1D UNIQUE REGIONS ACCESSED: 0
L1D REGIONS CONFLICTS: 0
L1D Cross Page Prefetch Requests: 0
L1D Same Page Prefetch Requests: 401725
L1D ROI Sum of L1D PQ occupancy: 3359640
L1D PREFETCHES PUSHED FROM L2C: 0
L1I TOTAL     ACCESS:   15759813  HIT:   11450313  MISS:    4309500  HIT %:    72.6551  MISS %:    27.3449   MPKI: 86.19
L1I LOAD      ACCESS:    9771321  HIT:    9744979  MISS:      26342  HIT %:    99.7304  MISS %:   0.269585   MPKI: 0.52684
L1I PREFETCH  ACCESS:    5988492  HIT:    1705334  MISS:    4283158  HIT %:    28.4769  MISS %:    71.5231   MPKI: 85.6632
L1I PREFETCH  REQUESTED:    6325041  ISSUED:    6306394  USEFUL:    3428312  USELESS:     854829
L1I USEFUL LOAD PREFETCHES:    3428312 PREFETCH ISSUED TO LOWER LEVEL:    4298908  ACCURACY: 79.7484
L1I TIMELY PREFETCHES:    3428312 LATE PREFETCHES: 15753 DROPPED PREFETCHES: 1
L1I PREFETCHES SAME FILL-ORIGIN LEVEL: 4298908 DIFFERENT FILL-ORIGIN LEVEL: 0
L1I AVERAGE MISS LATENCY: 185654 cycles
L1I RQ	ACCESS:   14209049	FORWARD:          0	MERGED:    4435299	TO_CACHE:    9773750
L1I PQ	ACCESS:    6306394	FORWARD:          0	MERGED:     213941	TO_CACHE:    6092453

BTB TOTAL     ACCESS:    6352892  HIT:    5366352  MISS:     986540  HIT %:     84.471  MISS %:     15.529   MPKI: 19.7308
BTB BRANCH_DIRECT_JUMP	ACCESS:     771899  HIT:     694689  MISS:      77210
BTB BRANCH_INDIRECT	ACCESS:     108179  HIT:      73521  MISS:      34658
BTB BRANCH_CONDITIONAL	ACCESS:    2927570  HIT:    2714481  MISS:     213089
BTB BRANCH_DIRECT_CALL	ACCESS:    1060892  HIT:     946633  MISS:     114259
BTB BRANCH_INDIRECT_CALL	ACCESS:     211719  HIT:     145244  MISS:      66475
BTB BRANCH_RETURN	ACCESS:    1272633  HIT:     791784  MISS:     480849
BTB BRANCH_OTHER ACCESS:          0  HIT:          0  MISS:          0

L2C TOTAL     ACCESS:    7582727  HIT:    7255840  MISS:     326887  HIT %:    95.6891  MISS %:    4.31094   MPKI: 6.53774
L2C LOAD      ACCESS:     626599  HIT:     499414  MISS:     127185  HIT %:    79.7023  MISS %:    20.2977   MPKI: 2.5437
L2C DATA LOAD MPKI: 2.51636
L2C INSTRUCTION LOAD MPKI: 0.02734
L2C RFO       ACCESS:     112550  HIT:      91293  MISS:      21257  HIT %:    81.1133  MISS %:    18.8867   MPKI: 0.42514
L2C PREFETCH  ACCESS:    6566308  HIT:    6397994  MISS:     168314  HIT %:    97.4367  MISS %:     2.5633   MPKI: 3.36628
L2C DATA PREFETCH MPKI: 2.82794
L2C INSTRUCTION PREFETCH MPKI: 0.53834
L2C WRITEBACK ACCESS:     266758  HIT:     261359  MISS:       5399  HIT %:    97.9761  MISS %:    2.02393   MPKI: 0.10798
L2C LOAD TRANSLATION ACCESS:      10159  HIT:       5662  MISS:       4497  HIT %:    55.7338  MISS %:    44.2662   MPKI: 0.08994
L2C TRANSLATION FROM L1D PREFETCHER ACCESS:        353  HIT:        118  MISS:        235  HIT %:    33.4278  MISS %:    66.5722   MPKI: 0.0047
L2C PREFETCH  REQUESTED:    4748881  ISSUED:    4748877  USEFUL:      50966  USELESS:     117464
L2C USEFUL LOAD PREFETCHES:      50966 PREFETCH ISSUED TO LOWER LEVEL:     173472  ACCURACY: 29.38
L2C TIMELY PREFETCHES:      50966 LATE PREFETCHES: 5158 DROPPED PREFETCHES: 0
L2C PREFETCHES SAME FILL-ORIGIN LEVEL: 112776 DIFFERENT FILL-ORIGIN LEVEL: 0
L2C AVERAGE MISS LATENCY: 162.089 cycles
L2C RQ	ACCESS:     749752	FORWARD:          0	MERGED:          0	TO_CACHE:     749661
L2C WQ	ACCESS:     266758	FORWARD:         92	MERGED:          0	TO_CACHE:     266758
L2C PQ	ACCESS:    9170610	FORWARD:          0	MERGED:    2588197	TO_CACHE:    6582412

L2C Instructions Evicting Data 21999
L2C Translations Evicting Data 4455
L2C Data Evicting Data 263034
L2C Instructions Evicting Instructions 6132
L2C Translations Evicting Instructions 219
L2C Data Evicting Instructions 20991
L2C Instructions Evicting Translations 153
L2C Translations Evicting Translations 58
L2C Data Evicting Translations 4447
L2C Dense regions hint from L2: 0
PSCL5 TOTAL     ACCESS:       9790  HIT:       9790  MISS:          0  HIT %:        100  MISS %:          0   MPKI: 0
PSCL5 LOAD TRANSLATION ACCESS:       9500  HIT:       9500  MISS:          0  HIT %:        100  MISS %:          0   MPKI: 0
PSCL5 TRANSLATION FROM L1D PREFETCHER ACCESS:        290  HIT:        290  MISS:          0  HIT %:        100  MISS %:          0   MPKI: 0
PSCL5 PREFETCH  REQUESTED:          0  ISSUED:          0  USEFUL:          0  USELESS:          0
PSCL5 USEFUL LOAD PREFETCHES:          0 PREFETCH ISSUED TO LOWER LEVEL:          0  ACCURACY: -nan
PSCL5 TIMELY PREFETCHES:          0 LATE PREFETCHES: 0 DROPPED PREFETCHES: 0
PSCL5 PREFETCHES SAME FILL-ORIGIN LEVEL: 0 DIFFERENT FILL-ORIGIN LEVEL: 0

PSCL4 TOTAL     ACCESS:       9230  HIT:       9200  MISS:         30  HIT %:     99.675  MISS %:   0.325027   MPKI: 0.0006
PSCL4 LOAD TRANSLATION ACCESS:       8946  HIT:       8916  MISS:         30  HIT %:    99.6647  MISS %:   0.335345   MPKI: 0.0006
PSCL4 TRANSLATION FROM L1D PREFETCHER ACCESS:        284  HIT:        284  MISS:          0  HIT %:        100  MISS %:          0   MPKI: 0
PSCL4 PREFETCH  REQUESTED:          0  ISSUED:          0  USEFUL:          0  USELESS:          0
PSCL4 USEFUL LOAD PREFETCHES:          0 PREFETCH ISSUED TO LOWER LEVEL:          0  ACCURACY: -nan
PSCL4 TIMELY PREFETCHES:          0 LATE PREFETCHES: 0 DROPPED PREFETCHES: 0
PSCL4 PREFETCHES SAME FILL-ORIGIN LEVEL: 0 DIFFERENT FILL-ORIGIN LEVEL: 0

PSCL3 TOTAL     ACCESS:       9542  HIT:       9512  MISS:         30  HIT %:    99.6856  MISS %:   0.314399   MPKI: 0.0006
PSCL3 LOAD TRANSLATION ACCESS:       9258  HIT:       9228  MISS:         30  HIT %:     99.676  MISS %:   0.324044   MPKI: 0.0006
PSCL3 TRANSLATION FROM L1D PREFETCHER ACCESS:        284  HIT:        284  MISS:          0  HIT %:        100  MISS %:          0   MPKI: 0
PSCL3 PREFETCH  REQUESTED:          0  ISSUED:          0  USEFUL:          0  USELESS:          0
PSCL3 USEFUL LOAD PREFETCHES:          0 PREFETCH ISSUED TO LOWER LEVEL:          0  ACCURACY: -nan
PSCL3 TIMELY PREFETCHES:          0 LATE PREFETCHES: 0 DROPPED PREFETCHES: 0
PSCL3 PREFETCHES SAME FILL-ORIGIN LEVEL: 0 DIFFERENT FILL-ORIGIN LEVEL: 0

PSCL2 TOTAL     ACCESS:       9790  HIT:       9126  MISS:        664  HIT %:    93.2176  MISS %:    6.78243   MPKI: 0.01328
PSCL2 LOAD TRANSLATION ACCESS:       9557  HIT:       8893  MISS:        664  HIT %:    93.0522  MISS %:    6.94779   MPKI: 0.01328
PSCL2 TRANSLATION FROM L1D PREFETCHER ACCESS:        233  HIT:        233  MISS:          0  HIT %:        100  MISS %:          0   MPKI: 0
PSCL2 PREFETCH  REQUESTED:          0  ISSUED:          0  USEFUL:          0  USELESS:          0
PSCL2 USEFUL LOAD PREFETCHES:          0 PREFETCH ISSUED TO LOWER LEVEL:          0  ACCURACY: -nan
PSCL2 TIMELY PREFETCHES:          0 LATE PREFETCHES: 0 DROPPED PREFETCHES: 0
PSCL2 PREFETCHES SAME FILL-ORIGIN LEVEL: 0 DIFFERENT FILL-ORIGIN LEVEL: 0

LLC TOTAL     ACCESS:     421796  HIT:     185997  MISS:     235799  HIT %:    44.0964  MISS %:    55.9036   MPKI: 4.71598
LLC LOAD      ACCESS:     122429  HIT:      21246  MISS:     101183  HIT %:    17.3537  MISS %:    82.6463   MPKI: 2.02366
LLC RFO       ACCESS:      20855  HIT:       6509  MISS:      14346  HIT %:    31.2107  MISS %:    68.7893   MPKI: 0.28692
LLC PREFETCH  ACCESS:     173472  HIT:      56022  MISS:     117450  HIT %:    32.2945  MISS %:    67.7055   MPKI: 2.349
LLC WRITEBACK ACCESS:     100308  HIT:      98839  MISS:       1469  HIT %:    98.5355  MISS %:    1.46449   MPKI: 0.02938
LLC LOAD TRANSLATION ACCESS:       4497  HIT:       3293  MISS:       1204  HIT %:    73.2266  MISS %:    26.7734   MPKI: 0.02408
LLC TRANSLATION FROM L1D PREFETCHER ACCESS:        235  HIT:         88  MISS:        147  HIT %:    37.4468  MISS %:    62.5532   MPKI: 0.00294
LLC PREFETCH  REQUESTED:          0  ISSUED:          0  USEFUL:       3273  USELESS:     113323
LLC USEFUL LOAD PREFETCHES:       3273 PREFETCH ISSUED TO LOWER LEVEL:     117450  ACCURACY: 2.78672
LLC TIMELY PREFETCHES:       3273 LATE PREFETCHES: 0 DROPPED PREFETCHES: 0
LLC PREFETCHES SAME FILL-ORIGIN LEVEL: 0 DIFFERENT FILL-ORIGIN LEVEL: 0
LLC AVERAGE MISS LATENCY: 185.427 cycles
LLC RQ	ACCESS:     148016	FORWARD:          0	MERGED:          0	TO_CACHE:     148016
LLC WQ	ACCESS:     100308	FORWARD:          0	MERGED:          0	TO_CACHE:     100308
LLC PQ	ACCESS:     173472	FORWARD:          0	MERGED:          0	TO_CACHE:     173472

LLC Dense regions hint to LLC: 0

RAW hits: 1583118
Loads Generated: 12082709
Loads sent to L1D: 10499592
Stores Generated: 6507515
Stores sent to L1D: 6507513
Major fault: 0 Minor fault: 5644
Allocated PAGES: 5644
I-Shadow cache 408 bytes
Touched + WorthPF tables 6144 bytes 
MMA filter 174 bytes 
FNL filter 272 bytes 
TOTAL PREFETCHER STORAGE SIZE: 25174 bytes
CPU 0 L1I next line prefetcher final stats

stream: 
stream:times selected: 338565
stream:pref_filled: 118914
stream:pref_useful: 16611
stream:pref_late: 1448
stream:misses: 12277
stream:misses_by_poll: 0

CS: 
CS:times selected: 17990
CS:pref_filled: 8006
CS:pref_useful: 2754
CS:pref_late: 349
CS:misses: 375
CS:misses_by_poll: 1

CPLX: 
CPLX:times selected: 329143
CPLX:pref_filled: 84040
CPLX:pref_useful: 8782
CPLX:pref_late: 2282
CPLX:misses: 45946
CPLX:misses_by_poll: 6

NL_L1: 
NL:times selected: 1723
NL:pref_filled: 540
NL:pref_useful: 12
NL:pref_late: 5
NL:misses: 320
NL:misses_by_poll: 0

total selections: 687421
total_filled: 120463
total_useful: 17311
total_late: 4505
total_polluted: 7
total_misses_after_warmup: 646107
conflicts: 3146428
Degree Incremented Times: 0
Degree Decremented Times: 317031

L1 IP Table Write Accesses: 3689752
L1 IP Table Read Accesses: 543324
L1 RST Write Accesses: 183923
L1 RST Read Accesses: 367846
L1 CSPT Write Accesses: 183923
L1 CSPT Read Accesses: 363140
L1 RR Filter Tag Write Accesses: 220625
L1 RR Filter Tag Read Accesses: 8907988
L1 IP Table Tag Write Accesses: 6967742
L1 IP Table Tag Read Accesses: 6967742
L1 RST Tag Write Accesses: 0
L1 RST Tag Read Accesses: 1759407
L1 RR Filter Write Accesses: 0
L1 RR Filter Read Accesses: 291591
test: 171701
L2 IP Table Read Accesses: 5176821
L2 IP Table Write Accesses: 9854752
L2 IP Table Tag Read Accesses: 4998283
L2 IP Table Tag Write Accesses: 4998283

DRAM Statistics
 CHANNEL 0
 RQ ROW_BUFFER_HIT:      56359  ROW_BUFFER_MISS:     177969
 DBUS_CONGESTED:         96
 WQ ROW_BUFFER_HIT:      20126  ROW_BUFFER_MISS:      67290  FULL:          0

 AVG_CONGESTED_CYCLE: 4
 All warmup complete: 2
Channel 0 Bank busy for read cycles: 0
Channel 0 Bank busy for write cycles: 0
Channel 0
Rank 0
0banks busy for read cycles: 51645764
0banks busy for write cycles: 20204
1banks busy for read cycles: 5977238
1banks busy for write cycles: 2684787
2banks busy for read cycles: 4328309
2banks busy for write cycles: 1287306
3banks busy for read cycles: 1648545
3banks busy for write cycles: 798997
4banks busy for read cycles: 854218
4banks busy for write cycles: 541670
5banks busy for read cycles: 507611
5banks busy for write cycles: 363419
6banks busy for read cycles: 288919
6banks busy for write cycles: 312432
7banks busy for read cycles: 262202
7banks busy for write cycles: 373224
8banks busy for read cycles: 70632
8banks busy for write cycles: 402601

CPU 0 Branch Prediction Accuracy: 99.9115% MPKI: 0.17232 Average ROB Occupancy at Mispredict: 71.9921
Branch types
NOT_BRANCH: 40267215 80.5344%
BRANCH_DIRECT_JUMP: 771899 1.5438%
BRANCH_INDIRECT: 108179 0.216358%
BRANCH_CONDITIONAL: 6307160 12.6143%
BRANCH_DIRECT_CALL: 1060892 2.12178%
BRANCH_INDIRECT_CALL: 211719 0.423438%
BRANCH_RETURN: 1272633 2.54527%
BRANCH_OTHER: 0 0%

DRAM PAGES: 1048576
Allocated PAGES: 5644
