
*** ChampSim Multicore Out-of-Order Simulator ***

Warmup Instructions: 50000000
Simulation Instructions: 50000000
Number of CPUs: 1
LLC sets: 2048
LLC ways: 16
Off-chip DRAM Size: 4096 MB Channels: 1 Width: 64-bit Data Rate: 6400 MT/s
CPU 0 runs ../IPC-traces//server_004.champsimtrace.xz
.xz
NUM_OF_IPS_IN_CRITICAL_IP_TRAINING: 64
NUM_OF_CRITICAL_IP_TRAINING_TABLE_WAYS: 2
NUM_OF_CRITICAL_IP_TRAINING_TABLE_SETS: 32
WOBBLY_CRITICAL_IP_CACHE_SETS: 32
WOBBLY_CRITICAL_IP_CACHE_WAYS: 4
BTB has LRU replacement policy
ITLB has LRU replacement policy
DTLB has LRU replacement policy
STLB has LRU replacement policy
CPU 0 L1I next line prefetcher
L1I has LRU replacement policy
IP Table Entries: 256
L1D has LRU replacement policy
Initialize SRRIP state for L2C
Initialize DRRIP state for LLC
Heartbeat CPU 0 instructions: 10000002 cycles: 2781509 heartbeat IPC: 3.59517 cumulative IPC: 3.59517 (Simulation time: 0 hr 3 min 45 sec) 
Heartbeat CPU 0 instructions: 20000002 cycles: 5600179 heartbeat IPC: 3.54777 cumulative IPC: 3.57131 (Simulation time: 0 hr 6 min 44 sec) 
Heartbeat CPU 0 instructions: 30000000 cycles: 10020930 heartbeat IPC: 2.26206 cumulative IPC: 2.99373 (Simulation time: 0 hr 10 min 51 sec) 
Heartbeat CPU 0 instructions: 40000003 cycles: 13241572 heartbeat IPC: 3.10497 cumulative IPC: 3.02079 (Simulation time: 0 hr 13 min 40 sec) 
Heartbeat CPU 0 instructions: 50000003 cycles: 16014800 heartbeat IPC: 3.60591 cumulative IPC: 3.12211 (Simulation time: 0 hr 15 min 53 sec) 

Warmup complete CPU 0 instructions: 50000003 cycles: 16014800 (Simulation time: 0 hr 15 min 53 sec) 

% increase in all ip prefetch 369.189
% increase in all ip prefetch -17.025
Heartbeat CPU 0 instructions: 60000002 cycles: 31579920 heartbeat IPC: 0.642462 cumulative IPC: 0.642462 (Simulation time: 0 hr 18 min 23 sec) 
Heartbeat CPU 0 instructions: 70000000 cycles: 46560981 heartbeat IPC: 0.667509 cumulative IPC: 0.654746 (Simulation time: 0 hr 20 min 54 sec) 
Heartbeat CPU 0 instructions: 80000001 cycles: 73252157 heartbeat IPC: 0.374656 cumulative IPC: 0.524133 (Simulation time: 0 hr 24 min 40 sec) 
Heartbeat CPU 0 instructions: 90000000 cycles: 96287624 heartbeat IPC: 0.434113 cumulative IPC: 0.498301 (Simulation time: 0 hr 27 min 56 sec) 
Heartbeat CPU 0 instructions: 100000002 cycles: 112017773 heartbeat IPC: 0.635722 cumulative IPC: 0.520817 (Simulation time: 0 hr 31 min 52 sec) 
Finished CPU 0 instructions: 50000000 cycles: 96002975 cumulative IPC: 0.520817 (Simulation time: 0 hr 31 min 52 sec) 

ChampSim completed all CPUs

Region of Interest Statistics

CPU 0 cumulative IPC: 0.520817 instructions: 50000000 cycles: 96002975

CPU 0 Average Load ROB stall cycles: 3.15592e+07
CPU 0 Fraction of times ROB stalled by Loads: 48.8476
CPU 0 Percentage of Load stall cycles in Total stall cycles: 3.12129e+08
Issued all: 35095564
Issued LT all: 29727616
rob_not_full_when_issued_lt_all: 21665022
Issued LT one: 23572427
rob_not_full_when_issued_lt_one: 16292405
 Total stall cycles: 80947661
 Total load stall cycles: 252661000256312
CPU 0 NUM of IPS identified critical: 0
CPU 0 Num of Load IPs stalling ROB: 46543
Threshold modification factor: -1
Max PIST entries: 64
Min PIST entries: 0
Avg PIST entries: 31.64
Trouble in retire width: 0.927063
MaC = Marked as critical.
lt_50_percent_before_Mac: 0
gt_90_percent_before_Mac: 0
gt_75_percent_before_Mac: 0
gt_50_percent_before_Mac: 0
stall_proportion_bin_same_before_after: 0
stall_proportion_bin_lower_before_after: 0
stall_proportion_bin_upper_before_after: 0
average_stall_proportion_before: -nan
average_stall_proportion_after: -nan
Critical IP stalls, total frequency: 0
Non-critical IP stalls, total frequency: 3910707
Total Freq all stalling IPs: 3910707
stat_90_percent_critical_ip_stalls_freq: 3519647
stat_90_percent_non_critical_ip_stalls_freq: 391060
Critical_IP_ROB_Stalls_Bucket_0: 0
Non-critical_IP_ROB_Stalls_Bucket_0: 1433147
Critical_IP_ROB_Stalls_Bucket_1: 0
Non-critical_IP_ROB_Stalls_Bucket_1: 771270
Critical_IP_ROB_Stalls_Bucket_2: 0
Non-critical_IP_ROB_Stalls_Bucket_2: 401947
Critical_IP_ROB_Stalls_Bucket_3: 0
Non-critical_IP_ROB_Stalls_Bucket_3: 268568
Critical_IP_ROB_Stalls_Bucket_4: 0
Non-critical_IP_ROB_Stalls_Bucket_4: 214590
Critical_IP_ROB_Stalls_Bucket_5: 0
Non-critical_IP_ROB_Stalls_Bucket_5: 225259
Critical_IP_ROB_Stalls_Bucket_6: 0
Non-critical_IP_ROB_Stalls_Bucket_6: 595926
0 => IPs accounting for >50 percent of stalls, 1 => 55, 2 => 60, 3 => 65 and so on till 90.
percent50: 50.1407 num IPs:  80
percent55: 55.0712 num IPs: 121
percent60: 60.0383 num IPs: 203
percent65: 65.0004 num IPs: 379
percent70: 70.0036 num IPs: 701
percent75: 75.0015 num IPs: 1185
percent80: 80.0024 num IPs: 1940
percent85: 85.0009 num IPs: 3327
percent90: 90.0006 num IPs: 5984
Critical_ROB_Stalls_Percent_0_Bucket_0: 313937
Non-critical_ROB_Stalls_Percent_0_Bucket_0: 1119210
Critical_ROB_Stalls_Percent_0_Bucket_1: 266553
Non-critical_ROB_Stalls_Percent_0_Bucket_1: 504717
Critical_ROB_Stalls_Percent_0_Bucket_2: 221703
Non-critical_ROB_Stalls_Percent_0_Bucket_2: 180244
Critical_ROB_Stalls_Percent_0_Bucket_3: 204832
Non-critical_ROB_Stalls_Percent_0_Bucket_3: 63736
Critical_ROB_Stalls_Percent_0_Bucket_4: 183254
Non-critical_ROB_Stalls_Percent_0_Bucket_4: 31336
Critical_ROB_Stalls_Percent_0_Bucket_5: 207008
Non-critical_ROB_Stalls_Percent_0_Bucket_5: 18251
Critical_ROB_Stalls_Percent_0_Bucket_6: 563569
Non-critical_ROB_Stalls_Percent_0_Bucket_6: 32357
Critical_ROB_Stalls_Percent_1_Bucket_0: 411797
Non-critical_ROB_Stalls_Percent_1_Bucket_0: 1021350
Critical_ROB_Stalls_Percent_1_Bucket_1: 330438
Non-critical_ROB_Stalls_Percent_1_Bucket_1: 440832
Critical_ROB_Stalls_Percent_1_Bucket_2: 245504
Non-critical_ROB_Stalls_Percent_1_Bucket_2: 156443
Critical_ROB_Stalls_Percent_1_Bucket_3: 209151
Non-critical_ROB_Stalls_Percent_1_Bucket_3: 59417
Critical_ROB_Stalls_Percent_1_Bucket_4: 184524
Non-critical_ROB_Stalls_Percent_1_Bucket_4: 30066
Critical_ROB_Stalls_Percent_1_Bucket_5: 207499
Non-critical_ROB_Stalls_Percent_1_Bucket_5: 17760
Critical_ROB_Stalls_Percent_1_Bucket_6: 564761
Non-critical_ROB_Stalls_Percent_1_Bucket_6: 31165
Critical_ROB_Stalls_Percent_2_Bucket_0: 488549
Non-critical_ROB_Stalls_Percent_2_Bucket_0: 944598
Critical_ROB_Stalls_Percent_2_Bucket_1: 404061
Non-critical_ROB_Stalls_Percent_2_Bucket_1: 367209
Critical_ROB_Stalls_Percent_2_Bucket_2: 267529
Non-critical_ROB_Stalls_Percent_2_Bucket_2: 134418
Critical_ROB_Stalls_Percent_2_Bucket_3: 217757
Non-critical_ROB_Stalls_Percent_2_Bucket_3: 50811
Critical_ROB_Stalls_Percent_2_Bucket_4: 188313
Non-critical_ROB_Stalls_Percent_2_Bucket_4: 26277
Critical_ROB_Stalls_Percent_2_Bucket_5: 209478
Non-critical_ROB_Stalls_Percent_2_Bucket_5: 15781
Critical_ROB_Stalls_Percent_2_Bucket_6: 572236
Non-critical_ROB_Stalls_Percent_2_Bucket_6: 23690
Critical_ROB_Stalls_Percent_3_Bucket_0: 581640
Non-critical_ROB_Stalls_Percent_3_Bucket_0: 851507
Critical_ROB_Stalls_Percent_3_Bucket_1: 458908
Non-critical_ROB_Stalls_Percent_3_Bucket_1: 312362
Critical_ROB_Stalls_Percent_3_Bucket_2: 292406
Non-critical_ROB_Stalls_Percent_3_Bucket_2: 109541
Critical_ROB_Stalls_Percent_3_Bucket_3: 226160
Non-critical_ROB_Stalls_Percent_3_Bucket_3: 42408
Critical_ROB_Stalls_Percent_3_Bucket_4: 193267
Non-critical_ROB_Stalls_Percent_3_Bucket_4: 21323
Critical_ROB_Stalls_Percent_3_Bucket_5: 212642
Non-critical_ROB_Stalls_Percent_3_Bucket_5: 12617
Critical_ROB_Stalls_Percent_3_Bucket_6: 576954
Non-critical_ROB_Stalls_Percent_3_Bucket_6: 18972
Critical_ROB_Stalls_Percent_4_Bucket_0: 673855
Non-critical_ROB_Stalls_Percent_4_Bucket_0: 759292
Critical_ROB_Stalls_Percent_4_Bucket_1: 518825
Non-critical_ROB_Stalls_Percent_4_Bucket_1: 252445
Critical_ROB_Stalls_Percent_4_Bucket_2: 316264
Non-critical_ROB_Stalls_Percent_4_Bucket_2: 85683
Critical_ROB_Stalls_Percent_4_Bucket_3: 234311
Non-critical_ROB_Stalls_Percent_4_Bucket_3: 34257
Critical_ROB_Stalls_Percent_4_Bucket_4: 197285
Non-critical_ROB_Stalls_Percent_4_Bucket_4: 17305
Critical_ROB_Stalls_Percent_4_Bucket_5: 215367
Non-critical_ROB_Stalls_Percent_4_Bucket_5: 9892
Critical_ROB_Stalls_Percent_4_Bucket_6: 581731
Non-critical_ROB_Stalls_Percent_4_Bucket_6: 14195
Critical_ROB_Stalls_Percent_5_Bucket_0: 772077
Non-critical_ROB_Stalls_Percent_5_Bucket_0: 661070
Critical_ROB_Stalls_Percent_5_Bucket_1: 582841
Non-critical_ROB_Stalls_Percent_5_Bucket_1: 188429
Critical_ROB_Stalls_Percent_5_Bucket_2: 334232
Non-critical_ROB_Stalls_Percent_5_Bucket_2: 67715
Critical_ROB_Stalls_Percent_5_Bucket_3: 240873
Non-critical_ROB_Stalls_Percent_5_Bucket_3: 27695
Critical_ROB_Stalls_Percent_5_Bucket_4: 200709
Non-critical_ROB_Stalls_Percent_5_Bucket_4: 13881
Critical_ROB_Stalls_Percent_5_Bucket_5: 217760
Non-critical_ROB_Stalls_Percent_5_Bucket_5: 7499
Critical_ROB_Stalls_Percent_5_Bucket_6: 584595
Non-critical_ROB_Stalls_Percent_5_Bucket_6: 11331
Critical_ROB_Stalls_Percent_6_Bucket_0: 891691
Non-critical_ROB_Stalls_Percent_6_Bucket_0: 541456
Critical_ROB_Stalls_Percent_6_Bucket_1: 631158
Non-critical_ROB_Stalls_Percent_6_Bucket_1: 140112
Critical_ROB_Stalls_Percent_6_Bucket_2: 348888
Non-critical_ROB_Stalls_Percent_6_Bucket_2: 53059
Critical_ROB_Stalls_Percent_6_Bucket_3: 246586
Non-critical_ROB_Stalls_Percent_6_Bucket_3: 21982
Critical_ROB_Stalls_Percent_6_Bucket_4: 203765
Non-critical_ROB_Stalls_Percent_6_Bucket_4: 10825
Critical_ROB_Stalls_Percent_6_Bucket_5: 219691
Non-critical_ROB_Stalls_Percent_6_Bucket_5: 5568
Critical_ROB_Stalls_Percent_6_Bucket_6: 586879
Non-critical_ROB_Stalls_Percent_6_Bucket_6: 9047
Critical_ROB_Stalls_Percent_7_Bucket_0: 1016372
Non-critical_ROB_Stalls_Percent_7_Bucket_0: 416775
Critical_ROB_Stalls_Percent_7_Bucket_1: 672832
Non-critical_ROB_Stalls_Percent_7_Bucket_1: 98438
Critical_ROB_Stalls_Percent_7_Bucket_2: 365025
Non-critical_ROB_Stalls_Percent_7_Bucket_2: 36922
Critical_ROB_Stalls_Percent_7_Bucket_3: 252576
Non-critical_ROB_Stalls_Percent_7_Bucket_3: 15992
Critical_ROB_Stalls_Percent_7_Bucket_4: 207144
Non-critical_ROB_Stalls_Percent_7_Bucket_4: 7446
Critical_ROB_Stalls_Percent_7_Bucket_5: 221392
Non-critical_ROB_Stalls_Percent_7_Bucket_5: 3867
Critical_ROB_Stalls_Percent_7_Bucket_6: 588793
Non-critical_ROB_Stalls_Percent_7_Bucket_6: 7133
Critical_ROB_Stalls_Percent_8_Bucket_0: 1145015
Non-critical_ROB_Stalls_Percent_8_Bucket_0: 288132
Critical_ROB_Stalls_Percent_8_Bucket_1: 713463
Non-critical_ROB_Stalls_Percent_8_Bucket_1: 57807
Critical_ROB_Stalls_Percent_8_Bucket_2: 378676
Non-critical_ROB_Stalls_Percent_8_Bucket_2: 23271
Critical_ROB_Stalls_Percent_8_Bucket_3: 258361
Non-critical_ROB_Stalls_Percent_8_Bucket_3: 10207
Critical_ROB_Stalls_Percent_8_Bucket_4: 210292
Non-critical_ROB_Stalls_Percent_8_Bucket_4: 4298
Critical_ROB_Stalls_Percent_8_Bucket_5: 222890
Non-critical_ROB_Stalls_Percent_8_Bucket_5: 2369
Critical_ROB_Stalls_Percent_8_Bucket_6: 590950
Non-critical_ROB_Stalls_Percent_8_Bucket_6: 4976
Average ROB occupancy Load Stall Begin: 120.855
Average ROB occupancy Load Stall End: 128.663
Min ROB occupancy Load Stall Begin: 1
Max ROB occupancy Load Stall Begin: 352
Min ROB occupancy Load Stall End: 1
Max ROB occupancy Load Stall End: 352
Average ROB occupancy Critical Load Stall Begin: -nan
Average ROB occupancy Critical Load Stall End: -nan
Min ROB occupancy Critical Load Stall Begin: 400
Max ROB occupancy Critical Load Stall Begin: 0
Min ROB occupancy Critical Load Stall End: 400
Max ROB occupancy Critical Load Stall End: 0
 ROB Load Stall Begin Bucket Count 0: 1711693
 ROB Load Stall End Bucket Count 0: 1433147
 ROB Critical Load Stall Begin Bucket Count 0: 0
 ROB Critical Load Stall End Bucket Count 0: 0
 ROB Load Stall Begin Bucket Count 1: 598774
 ROB Load Stall End Bucket Count 1: 771270
 ROB Critical Load Stall Begin Bucket Count 1: 0
 ROB Critical Load Stall End Bucket Count 1: 0
 ROB Load Stall Begin Bucket Count 2: 347065
 ROB Load Stall End Bucket Count 2: 401947
 ROB Critical Load Stall Begin Bucket Count 2: 0
 ROB Critical Load Stall End Bucket Count 2: 0
 ROB Load Stall Begin Bucket Count 3: 245565
 ROB Load Stall End Bucket Count 3: 268568
 ROB Critical Load Stall Begin Bucket Count 3: 0
 ROB Critical Load Stall End Bucket Count 3: 0
 ROB Load Stall Begin Bucket Count 4: 209078
 ROB Load Stall End Bucket Count 4: 214590
 ROB Critical Load Stall Begin Bucket Count 4: 0
 ROB Critical Load Stall End Bucket Count 4: 0
 ROB Load Stall Begin Bucket Count 5: 219785
 ROB Load Stall End Bucket Count 5: 225259
 ROB Critical Load Stall Begin Bucket Count 5: 0
 ROB Critical Load Stall End Bucket Count 5: 0
 ROB Load Stall Begin Bucket Count 6: 578748
 ROB Load Stall End Bucket Count 6: 595926
 ROB Critical Load Stall Begin Bucket Count 6: 0
 ROB Critical Load Stall End Bucket Count 6: 0
PIST Tag Read Accesses: 2438314
PIST Read Accesses: 1219157
PIST Tag Write Accesses: 2438314
PIST Write Accesses: 1219157
Criticality detector called times: 2360669
Max global_stall_cycles_count: 3474532
Threshold Modified: 1 times, factor: -1
Sturdy critical IP cache stats: 
 Unused entries: 0
CIC Tag Read Accesses: 0
CIC Read Accesses: 0
CIC Tag Write Accesses: 0
CIC Write Accesses: 0
Wobbly critical IP cache stats: 
 Unused entries: 47
CIC Tag Read Accesses: 87261226
CIC Read Accesses: 0
CIC Tag Write Accesses: 159460
CIC Write Accesses: 0
ITLB TOTAL     ACCESS:    9884881  HIT:    9690850  MISS:     194031  HIT %:    98.0371  MISS %:    1.96291   MPKI: 3.88062
ITLB LOAD TRANSLATION ACCESS:    8909709  HIT:    8839857  MISS:      69852  HIT %:     99.216  MISS %:   0.783999   MPKI: 1.39704
ITLB TRANSLATION FROM L1D PREFETCHER ACCESS:     975172  HIT:     850993  MISS:     124179  HIT %:    87.2659  MISS %:    12.7341   MPKI: 2.48358
ITLB PREFETCH  REQUESTED:          0  ISSUED:          0  USEFUL:     102482  USELESS:      21703
ITLB USEFUL LOAD PREFETCHES:     102482 PREFETCH ISSUED TO LOWER LEVEL:          0  ACCURACY: inf
ITLB TIMELY PREFETCHES:     102482 LATE PREFETCHES: 656 DROPPED PREFETCHES: 8552
ITLB PREFETCHES SAME FILL-ORIGIN LEVEL: 0 DIFFERENT FILL-ORIGIN LEVEL: 0
ITLB AVERAGE MISS LATENCY: 189419 cycles
ITLB RQ	ACCESS:   12965756	FORWARD:          0	MERGED:    3045265	TO_CACHE:    9920491

DTLB TOTAL     ACCESS:   10667551  HIT:    9161126  MISS:    1506425  HIT %:    85.8784  MISS %:    14.1216   MPKI: 30.1285
DTLB LOAD TRANSLATION ACCESS:   10667551  HIT:    9161126  MISS:    1506425  HIT %:    85.8784  MISS %:    14.1216   MPKI: 30.1285
DTLB PREFETCH  REQUESTED:          0  ISSUED:          0  USEFUL:          0  USELESS:          0
DTLB USEFUL LOAD PREFETCHES:          0 PREFETCH ISSUED TO LOWER LEVEL:          0  ACCURACY: -nan
DTLB TIMELY PREFETCHES:          0 LATE PREFETCHES: 0 DROPPED PREFETCHES: 0
DTLB PREFETCHES SAME FILL-ORIGIN LEVEL: 0 DIFFERENT FILL-ORIGIN LEVEL: 0
DTLB AVERAGE MISS LATENCY: 11.5039 cycles
DTLB RQ	ACCESS:   13829022	FORWARD:          0	MERGED:    3129540	TO_CACHE:   10699482

STLB TOTAL     ACCESS:    2967814  HIT:    2860337  MISS:     107477  HIT %:    96.3786  MISS %:    3.62142   MPKI: 2.14954
STLB LOAD TRANSLATION ACCESS:    1575622  HIT:    1488504  MISS:      87118  HIT %:    94.4709  MISS %:    5.52912   MPKI: 1.74236
STLB TRANSLATION FROM L1D PREFETCHER ACCESS:    1392192  HIT:    1371833  MISS:      20359  HIT %:    98.5376  MISS %:    1.46237   MPKI: 0.40718
STLB PREFETCH  REQUESTED:          0  ISSUED:          0  USEFUL:      11798  USELESS:       8605
STLB USEFUL LOAD PREFETCHES:      11798 PREFETCH ISSUED TO LOWER LEVEL:          0  ACCURACY: inf
STLB TIMELY PREFETCHES:      11798 LATE PREFETCHES: 0 DROPPED PREFETCHES: 8553
STLB PREFETCHES SAME FILL-ORIGIN LEVEL: 0 DIFFERENT FILL-ORIGIN LEVEL: 0
STLB AVERAGE MISS LATENCY: 49.0063 cycles
STLB RQ	ACCESS:    4378441	FORWARD:          0	MERGED:    1402074	TO_CACHE:    2976367

STLB Hit, L1D data hit: 0
STLB Hit, L2C data hit: 0
STLB Hit, LLC data hit: 0
STLB Hit, LLC data miss: 0
STLB STLB hints to L2: 0
L1D TOTAL     ACCESS:   16265027  HIT:   12764997  MISS:    3500030  HIT %:    78.4813  MISS %:    21.5187   MPKI: 70.0006
L1D LOAD      ACCESS:    8983671  HIT:    7078922  MISS:    1904749  HIT %:    78.7977  MISS %:    21.2023   MPKI: 38.095
L1D RFO       ACCESS:    4661925  HIT:    4548371  MISS:     113554  HIT %:    97.5642  MISS %:    2.43577   MPKI: 2.27108
L1D PREFETCH  ACCESS:    2619431  HIT:    1137704  MISS:    1481727  HIT %:    43.4332  MISS %:    56.5668   MPKI: 29.6345
L1D PREFETCH  REQUESTED:    5338899  ISSUED:    5338875  USEFUL:     123211  USELESS:    1358587
L1D USEFUL LOAD PREFETCHES:     123211 PREFETCH ISSUED TO LOWER LEVEL:    1520194  ACCURACY: 8.10495
L1D TIMELY PREFETCHES:     123211 LATE PREFETCHES: 38462 DROPPED PREFETCHES: 0
L1D PREFETCHES SAME FILL-ORIGIN LEVEL: 1520194 DIFFERENT FILL-ORIGIN LEVEL: 0
L1D AVERAGE MISS LATENCY: 723001 cycles
L1D RQ	ACCESS:   12435849	FORWARD:          0	MERGED:    3332114	TO_CACHE:    9019202
L1D WQ	ACCESS:    4946118	FORWARD:      84544	MERGED:     136298	TO_CACHE:    4809820
L1D PQ	ACCESS:    2669443	FORWARD:          0	MERGED:          0	TO_CACHE:    2669432

L1D UNIQUE REGIONS ACCESSED: 0
L1D REGIONS CONFLICTS: 0
L1D Cross Page Prefetch Requests: 0
L1D Same Page Prefetch Requests: 5670607
L1D ROI Sum of L1D PQ occupancy: 35196126
L1D PREFETCHES PUSHED FROM L2C: 0
L1I TOTAL     ACCESS:   12819921  HIT:   11162188  MISS:    1657733  HIT %:    87.0691  MISS %:    12.9309   MPKI: 33.1547
L1I LOAD      ACCESS:   10513073  HIT:   10262286  MISS:     250787  HIT %:    97.6145  MISS %:    2.38548   MPKI: 5.01574
L1I PREFETCH  ACCESS:    2306848  HIT:     899902  MISS:    1406946  HIT %:      39.01  MISS %:      60.99   MPKI: 28.1389
L1I PREFETCH  REQUESTED:    2528176  ISSUED:    2520599  USEFUL:     896502  USELESS:     510369
L1I USEFUL LOAD PREFETCHES:     896502 PREFETCH ISSUED TO LOWER LEVEL:    1437194  ACCURACY: 62.3786
L1I TIMELY PREFETCHES:     896502 LATE PREFETCHES: 30248 DROPPED PREFETCHES: 21587
L1I PREFETCHES SAME FILL-ORIGIN LEVEL: 1437194 DIFFERENT FILL-ORIGIN LEVEL: 0
L1I AVERAGE MISS LATENCY: 1.07084e+06 cycles
L1I RQ	ACCESS:   15256986	FORWARD:          0	MERGED:    4720050	TO_CACHE:   10536936
L1I PQ	ACCESS:    2520599	FORWARD:          0	MERGED:      91779	TO_CACHE:    2428820

BTB TOTAL     ACCESS:    6734671  HIT:    5946798  MISS:     787873  HIT %:    88.3012  MISS %:    11.6988   MPKI: 15.7575
BTB BRANCH_DIRECT_JUMP	ACCESS:     551642  HIT:     494500  MISS:      57142
BTB BRANCH_INDIRECT	ACCESS:     139368  HIT:     102277  MISS:      37091
BTB BRANCH_CONDITIONAL	ACCESS:    4079633  HIT:    3873989  MISS:     205644
BTB BRANCH_DIRECT_CALL	ACCESS:     776073  HIT:     672148  MISS:     103925
BTB BRANCH_INDIRECT_CALL	ACCESS:     194644  HIT:     163518  MISS:      31126
BTB BRANCH_RETURN	ACCESS:     993311  HIT:     640366  MISS:     352945
BTB BRANCH_OTHER ACCESS:          0  HIT:          0  MISS:          0

L2C TOTAL     ACCESS:    5560120  HIT:    4564190  MISS:     995930  HIT %:     82.088  MISS %:     17.912   MPKI: 19.9186
L2C LOAD      ACCESS:    2086814  HIT:    1728257  MISS:     358557  HIT %:     82.818  MISS %:     17.182   MPKI: 7.17114
L2C DATA LOAD MPKI: 5.29512
L2C INSTRUCTION LOAD MPKI: 1.87602
L2C RFO       ACCESS:     113548  HIT:      63248  MISS:      50300  HIT %:    55.7016  MISS %:    44.2984   MPKI: 1.006
L2C PREFETCH  ACCESS:    2978010  HIT:    2467476  MISS:     510534  HIT %:    82.8565  MISS %:    17.1435   MPKI: 10.2107
L2C DATA PREFETCH MPKI: 0.4351
L2C INSTRUCTION PREFETCH MPKI: 9.77558
L2C WRITEBACK ACCESS:     230597  HIT:     209378  MISS:      21219  HIT %:    90.7982  MISS %:    9.20177   MPKI: 0.42438
L2C LOAD TRANSLATION ACCESS:     113542  HIT:      66041  MISS:      47501  HIT %:    58.1644  MISS %:    41.8356   MPKI: 0.95002
L2C TRANSLATION FROM L1D PREFETCHER ACCESS:      37609  HIT:      29790  MISS:       7819  HIT %:    79.2098  MISS %:    20.7902   MPKI: 0.15638
L2C PREFETCH  REQUESTED:      30160  ISSUED:      30160  USEFUL:      21310  USELESS:     497547
L2C USEFUL LOAD PREFETCHES:      21310 PREFETCH ISSUED TO LOWER LEVEL:     510855  ACCURACY: 4.17144
L2C TIMELY PREFETCHES:      21310 LATE PREFETCHES: 321 DROPPED PREFETCHES: 0
L2C PREFETCHES SAME FILL-ORIGIN LEVEL: 11815 DIFFERENT FILL-ORIGIN LEVEL: 0
L2C AVERAGE MISS LATENCY: 48.158 cycles
L2C RQ	ACCESS:    2351526	FORWARD:          0	MERGED:          0	TO_CACHE:    2351513
L2C WQ	ACCESS:     230597	FORWARD:         13	MERGED:          0	TO_CACHE:     230597
L2C PQ	ACCESS:    2987548	FORWARD:          0	MERGED:       8249	TO_CACHE:    2979299

L2C Instructions Evicting Data 207977
L2C Translations Evicting Data 19848
L2C Data Evicting Data 123598
L2C Instructions Evicting Instructions 342639
L2C Translations Evicting Instructions 32170
L2C Data Evicting Instructions 194290
L2C Instructions Evicting Translations 31964
L2C Translations Evicting Translations 3302
L2C Data Evicting Translations 18923
L2C Dense regions hint from L2: 0
PSCL5 TOTAL     ACCESS:     116030  HIT:     116030  MISS:          0  HIT %:        100  MISS %:          0   MPKI: 0
PSCL5 LOAD TRANSLATION ACCESS:      87118  HIT:      87118  MISS:          0  HIT %:        100  MISS %:          0   MPKI: 0
PSCL5 TRANSLATION FROM L1D PREFETCHER ACCESS:      28912  HIT:      28912  MISS:          0  HIT %:        100  MISS %:          0   MPKI: 0
PSCL5 PREFETCH  REQUESTED:          0  ISSUED:          0  USEFUL:          0  USELESS:          0
PSCL5 USEFUL LOAD PREFETCHES:          0 PREFETCH ISSUED TO LOWER LEVEL:          0  ACCURACY: -nan
PSCL5 TIMELY PREFETCHES:          0 LATE PREFETCHES: 0 DROPPED PREFETCHES: 0
PSCL5 PREFETCHES SAME FILL-ORIGIN LEVEL: 0 DIFFERENT FILL-ORIGIN LEVEL: 0

PSCL4 TOTAL     ACCESS:     108080  HIT:     107830  MISS:        250  HIT %:    99.7687  MISS %:    0.23131   MPKI: 0.005
PSCL4 LOAD TRANSLATION ACCESS:      81753  HIT:      81503  MISS:        250  HIT %:    99.6942  MISS %:   0.305799   MPKI: 0.005
PSCL4 TRANSLATION FROM L1D PREFETCHER ACCESS:      26327  HIT:      26327  MISS:          0  HIT %:        100  MISS %:          0   MPKI: 0
PSCL4 PREFETCH  REQUESTED:          0  ISSUED:          0  USEFUL:          0  USELESS:          0
PSCL4 USEFUL LOAD PREFETCHES:          0 PREFETCH ISSUED TO LOWER LEVEL:          0  ACCURACY: -nan
PSCL4 TIMELY PREFETCHES:          0 LATE PREFETCHES: 0 DROPPED PREFETCHES: 0
PSCL4 PREFETCHES SAME FILL-ORIGIN LEVEL: 0 DIFFERENT FILL-ORIGIN LEVEL: 0

PSCL3 TOTAL     ACCESS:     114473  HIT:     113831  MISS:        642  HIT %:    99.4392  MISS %:   0.560831   MPKI: 0.01284
PSCL3 LOAD TRANSLATION ACCESS:      86717  HIT:      86075  MISS:        642  HIT %:    99.2597  MISS %:   0.740339   MPKI: 0.01284
PSCL3 TRANSLATION FROM L1D PREFETCHER ACCESS:      27756  HIT:      27756  MISS:          0  HIT %:        100  MISS %:          0   MPKI: 0
PSCL3 PREFETCH  REQUESTED:          0  ISSUED:          0  USEFUL:          0  USELESS:          0
PSCL3 USEFUL LOAD PREFETCHES:          0 PREFETCH ISSUED TO LOWER LEVEL:          0  ACCURACY: -nan
PSCL3 TIMELY PREFETCHES:          0 LATE PREFETCHES: 0 DROPPED PREFETCHES: 0
PSCL3 PREFETCHES SAME FILL-ORIGIN LEVEL: 0 DIFFERENT FILL-ORIGIN LEVEL: 0

PSCL2 TOTAL     ACCESS:     111227  HIT:      82665  MISS:      28562  HIT %:     74.321  MISS %:     25.679   MPKI: 0.57124
PSCL2 LOAD TRANSLATION ACCESS:      89921  HIT:      61359  MISS:      28562  HIT %:    68.2366  MISS %:    31.7634   MPKI: 0.57124
PSCL2 TRANSLATION FROM L1D PREFETCHER ACCESS:      21306  HIT:      21306  MISS:          0  HIT %:        100  MISS %:          0   MPKI: 0
PSCL2 PREFETCH  REQUESTED:          0  ISSUED:          0  USEFUL:          0  USELESS:          0
PSCL2 USEFUL LOAD PREFETCHES:          0 PREFETCH ISSUED TO LOWER LEVEL:          0  ACCURACY: -nan
PSCL2 TIMELY PREFETCHES:          0 LATE PREFETCHES: 0 DROPPED PREFETCHES: 0
PSCL2 PREFETCHES SAME FILL-ORIGIN LEVEL: 0 DIFFERENT FILL-ORIGIN LEVEL: 0

LLC TOTAL     ACCESS:    1088925  HIT:     969592  MISS:     119333  HIT %:    89.0412  MISS %:    10.9588   MPKI: 2.38666
LLC LOAD      ACCESS:     358244  HIT:     295946  MISS:      62298  HIT %:    82.6102  MISS %:    17.3898   MPKI: 1.24596
LLC RFO       ACCESS:      50292  HIT:      32618  MISS:      17674  HIT %:    64.8572  MISS %:    35.1428   MPKI: 0.35348
LLC PREFETCH  ACCESS:     510855  HIT:     477193  MISS:      33662  HIT %:    93.4107  MISS %:    6.58935   MPKI: 0.67324
LLC WRITEBACK ACCESS:     114214  HIT:     111256  MISS:       2958  HIT %:    97.4101  MISS %:    2.58988   MPKI: 0.05916
LLC LOAD TRANSLATION ACCESS:      47501  HIT:      44882  MISS:       2619  HIT %:    94.4864  MISS %:    5.51357   MPKI: 0.05238
LLC TRANSLATION FROM L1D PREFETCHER ACCESS:       7819  HIT:       7697  MISS:        122  HIT %:    98.4397  MISS %:     1.5603   MPKI: 0.00244
LLC PREFETCH  REQUESTED:          0  ISSUED:          0  USEFUL:       2417  USELESS:      38303
LLC USEFUL LOAD PREFETCHES:       2417 PREFETCH ISSUED TO LOWER LEVEL:      33662  ACCURACY: 7.1802
LLC TIMELY PREFETCHES:       2417 LATE PREFETCHES: 0 DROPPED PREFETCHES: 0
LLC PREFETCHES SAME FILL-ORIGIN LEVEL: 0 DIFFERENT FILL-ORIGIN LEVEL: 0
LLC AVERAGE MISS LATENCY: 156.544 cycles
LLC RQ	ACCESS:     463856	FORWARD:          0	MERGED:          0	TO_CACHE:     463856
LLC WQ	ACCESS:     114214	FORWARD:          0	MERGED:          0	TO_CACHE:     114214
LLC PQ	ACCESS:     510855	FORWARD:          0	MERGED:          0	TO_CACHE:     510855

LLC Dense regions hint to LLC: 0

RAW hits: 1027211
Loads Generated: 13463062
Loads sent to L1D: 12435849
Stores Generated: 4946117
Stores sent to L1D: 4946118
Major fault: 0 Minor fault: 7942
Allocated PAGES: 7942
I-Shadow cache 408 bytes
Touched + WorthPF tables 6144 bytes 
MMA filter 174 bytes 
FNL filter 272 bytes 
TOTAL PREFETCHER STORAGE SIZE: 25174 bytes
CPU 0 L1I next line prefetcher final stats

stream: 
stream:times selected: 4433276
stream:pref_filled: 1909343
stream:pref_useful: 41278
stream:pref_late: 22908
stream:misses: 1376197
stream:misses_by_poll: 0

CS: 
CS:times selected: 1056655
CS:pref_filled: 416381
CS:pref_useful: 46781
CS:pref_late: 19155
CS:misses: 75841
CS:misses_by_poll: 0

CPLX: 
CPLX:times selected: 4086541
CPLX:pref_filled: 634164
CPLX:pref_useful: 91823
CPLX:pref_late: 56770
CPLX:misses: 1452850
CPLX:misses_by_poll: 102

NL_L1: 
NL:times selected: 23725
NL:pref_filled: 789
NL:pref_useful: 121
NL:pref_late: 11
NL:misses: 610
NL:misses_by_poll: 0

total selections: 9600197
total_filled: 1481727
total_useful: 123211
total_late: 136103
total_polluted: 102
total_misses_after_warmup: 1940279
conflicts: 2021977
Degree Incremented Times: 0
Degree Decremented Times: 383086

L1 IP Table Write Accesses: 6468961
L1 IP Table Read Accesses: 4446984
L1 RST Write Accesses: 2202131
L1 RST Read Accesses: 4404262
L1 CSPT Write Accesses: 2202131
L1 CSPT Read Accesses: 4239709
L1 RR Filter Tag Write Accesses: 2669467
L1 RR Filter Tag Read Accesses: 103509015
L1 IP Table Tag Write Accesses: 9019201
L1 IP Table Tag Read Accesses: 9019201
L1 RST Tag Write Accesses: 0
L1 RST Tag Read Accesses: 18585285
L1 RR Filter Write Accesses: 0
L1 RR Filter Read Accesses: 3256284
test: 2260507
L2 IP Table Read Accesses: 7870739
L2 IP Table Write Accesses: 8067828
L2 IP Table Tag Read Accesses: 4819137
L2 IP Table Tag Write Accesses: 4819137

DRAM Statistics
 CHANNEL 0
 RQ ROW_BUFFER_HIT:      25367  ROW_BUFFER_MISS:      91007
 DBUS_CONGESTED:         96
 WQ ROW_BUFFER_HIT:       9550  ROW_BUFFER_MISS:      37152  FULL:          0

 AVG_CONGESTED_CYCLE: 4
 All warmup complete: 2
Channel 0 Bank busy for read cycles: 0
Channel 0 Bank busy for write cycles: 0
Channel 0
Rank 0
0banks busy for read cycles: 81711245
0banks busy for write cycles: 20363
1banks busy for read cycles: 6683793
1banks busy for write cycles: 2902824
2banks busy for read cycles: 1683408
2banks busy for write cycles: 824077
3banks busy for read cycles: 520775
3banks busy for write cycles: 328052
4banks busy for read cycles: 259998
4banks busy for write cycles: 193351
5banks busy for read cycles: 145290
5banks busy for write cycles: 133642
6banks busy for read cycles: 130367
6banks busy for write cycles: 99077
7banks busy for read cycles: 61064
7banks busy for write cycles: 88936
8banks busy for read cycles: 43616
8banks busy for write cycles: 173098

CPU 0 Branch Prediction Accuracy: 98.1603% MPKI: 3.89124 Average ROB Occupancy at Mispredict: 40.3356
Branch types
NOT_BRANCH: 39423814 78.8476%
BRANCH_DIRECT_JUMP: 551642 1.10328%
BRANCH_INDIRECT: 139368 0.278736%
BRANCH_CONDITIONAL: 7920893 15.8418%
BRANCH_DIRECT_CALL: 776073 1.55215%
BRANCH_INDIRECT_CALL: 194644 0.389288%
BRANCH_RETURN: 993311 1.98662%
BRANCH_OTHER: 0 0%

DRAM PAGES: 1048576
Allocated PAGES: 7942
