Initialize SIGNATURE TABLE
ST_SET: 1
ST_WAY: 256
ST_TAG_BIT: 16
ST_TAG_MASK: ffff

Initialize PATTERN TABLE
PT_SET: 512
PT_WAY: 4
SIG_DELTA_BIT: 7
C_SIG_BIT: 4
C_DELTA_BIT: 4

Initialize PREFETCH FILTER
FILTER_SET: 1024

*** ChampSim Multicore Out-of-Order Simulator ***

Warmup Instructions: 50000000
Simulation Instructions: 50000000
Number of CPUs: 1
LLC sets: 2048
LLC ways: 16
Off-chip DRAM Size: 4096 MB Channels: 1 Width: 64-bit Data Rate: 6400 MT/s
CPU 0 runs ../IPC-traces//server_010.champsimtrace.xz
.xz
BTB has LRU replacement policy
ITLB has LRU replacement policy
DTLB has LRU replacement policy
STLB has LRU replacement policy
CPU 0 L1I next line prefetcher
L1I has LRU replacement policy
L1D has LRU replacement policy
Initialize SRRIP state for L2C
Initialize DRRIP state for LLC
Heartbeat CPU 0 instructions: 10000001 cycles: 2762286 heartbeat IPC: 3.62019 cumulative IPC: 3.62019 (Simulation time: 0 hr 2 min 55 sec) 
Heartbeat CPU 0 instructions: 20000003 cycles: 5516118 heartbeat IPC: 3.6313 cumulative IPC: 3.62574 (Simulation time: 0 hr 5 min 23 sec) 
Heartbeat CPU 0 instructions: 30000001 cycles: 8269061 heartbeat IPC: 3.63248 cumulative IPC: 3.62798 (Simulation time: 0 hr 7 min 51 sec) 
Heartbeat CPU 0 instructions: 40000000 cycles: 11023206 heartbeat IPC: 3.63089 cumulative IPC: 3.62871 (Simulation time: 0 hr 10 min 8 sec) 
Heartbeat CPU 0 instructions: 50000003 cycles: 13778633 heartbeat IPC: 3.6292 cumulative IPC: 3.62881 (Simulation time: 0 hr 12 min 17 sec) 

Warmup complete CPU 0 instructions: 50000003 cycles: 13778633 (Simulation time: 0 hr 12 min 17 sec) 

Heartbeat CPU 0 instructions: 60000001 cycles: 27894254 heartbeat IPC: 0.708435 cumulative IPC: 0.708435 (Simulation time: 0 hr 14 min 54 sec) 
Heartbeat CPU 0 instructions: 70000000 cycles: 42038255 heartbeat IPC: 0.707013 cumulative IPC: 0.707723 (Simulation time: 0 hr 17 min 26 sec) 
Heartbeat CPU 0 instructions: 80000003 cycles: 56205252 heartbeat IPC: 0.705866 cumulative IPC: 0.707103 (Simulation time: 0 hr 19 min 51 sec) 
Heartbeat CPU 0 instructions: 90000002 cycles: 70134049 heartbeat IPC: 0.717937 cumulative IPC: 0.709781 (Simulation time: 0 hr 22 min 19 sec) 
Heartbeat CPU 0 instructions: 100000000 cycles: 97743761 heartbeat IPC: 0.362191 cumulative IPC: 0.595485 (Simulation time: 0 hr 26 min 52 sec) 
Finished CPU 0 instructions: 50000001 cycles: 83965149 cumulative IPC: 0.595485 (Simulation time: 0 hr 26 min 52 sec) 

ChampSim completed all CPUs

Region of Interest Statistics

CPU 0 cumulative IPC: 0.595485 instructions: 50000001 cycles: 83965149

CPU 0 Average Load ROB stall cycles: 2.803e+07
CPU 0 Fraction of times ROB stalled by Loads: 47.4046
CPU 0 Percentage of Load stall cycles in Total stall cycles: 2.88393e+08
Issued all: 33965586
Issued LT all: 28183560
rob_not_full_when_issued_lt_all: 20902583
Issued LT one: 22912130
rob_not_full_when_issued_lt_one: 16138560
FVP critical_dynamic_instances_0: 3149470
FVP unique_critical_ips_0: 13084
 Total stall cycles: 70445158
 Total load stall cycles: 203158985513923
Unique Load IPs: 31458
CPU 0 NUM of IPS identified critical: 0
CPU 0 Num of Load IPs stalling ROB: 0
Threshold modification factor: 0
Trouble in retire width: -nan
MaC = Marked as critical.
lt_50_percent_before_Mac: 0
gt_90_percent_before_Mac: 0
gt_75_percent_before_Mac: 0
gt_50_percent_before_Mac: 0
stall_proportion_bin_same_before_after: 0
stall_proportion_bin_lower_before_after: 0
stall_proportion_bin_upper_before_after: 0
average_stall_proportion_before: -nan
average_stall_proportion_after: -nan
Critical IP stalls, total frequency: 0
Non-critical IP stalls, total frequency: 0
Total Freq all stalling IPs: 0
Critical_IP_Detector_Accuracy_70: 7.64292e-05
Critical_IP_Detector_Accuracy_80: 7.64292e-05
Critical_IP_Detector_Accuracy_90: 7.64292e-05
Critical_IP_Detector_Coverage_70: 1
Critical_IP_Detector_Coverage_80: 1
Critical_IP_Detector_Coverage_90: 1
stat_90_percent_critical_ip_stalls_freq: 512011
stat_90_percent_non_critical_ip_stalls_freq: 18446744073709039605
AVERAGE_ROB_Occupancy_90_Percent_Critical_IP_Stalls: 267.807
AVERAGE_ROB_Occupancy_90_Percent_Non_Critical_IP_Stalls: 1.62913e-11
Critical_IP_ROB_Stalls_Bucket_0: 0
Non-critical_IP_ROB_Stalls_Bucket_0: 1205247
Critical_IP_ROB_Stalls_Bucket_1: 0
Non-critical_IP_ROB_Stalls_Bucket_1: 777800
Critical_IP_ROB_Stalls_Bucket_2: 0
Non-critical_IP_ROB_Stalls_Bucket_2: 369702
Critical_IP_ROB_Stalls_Bucket_3: 0
Non-critical_IP_ROB_Stalls_Bucket_3: 223637
Critical_IP_ROB_Stalls_Bucket_4: 0
Non-critical_IP_ROB_Stalls_Bucket_4: 174275
Critical_IP_ROB_Stalls_Bucket_5: 0
Non-critical_IP_ROB_Stalls_Bucket_5: 164128
Critical_IP_ROB_Stalls_Bucket_6: 0
Non-critical_IP_ROB_Stalls_Bucket_6: 521051
0 => IPs accounting for >50 percent of stalls, 1 => 55, 2 => 60, 3 => 65 and so on till 90.
percent50: inf num IPs:  1
percent55: inf num IPs: 1
percent60: inf num IPs: 1
percent65: inf num IPs: 1
percent70: inf num IPs: 1
percent75: inf num IPs: 1
percent80: inf num IPs: 1
percent85: inf num IPs: 1
percent90: inf num IPs: 1
Critical_ROB_Stalls_Percent_0_Bucket_0: 50
Non-critical_ROB_Stalls_Percent_0_Bucket_0: 1205197
Critical_ROB_Stalls_Percent_0_Bucket_1: 9500
Non-critical_ROB_Stalls_Percent_0_Bucket_1: 768300
Critical_ROB_Stalls_Percent_0_Bucket_2: 57516
Non-critical_ROB_Stalls_Percent_0_Bucket_2: 312186
Critical_ROB_Stalls_Percent_0_Bucket_3: 68207
Non-critical_ROB_Stalls_Percent_0_Bucket_3: 155430
Critical_ROB_Stalls_Percent_0_Bucket_4: 67284
Non-critical_ROB_Stalls_Percent_0_Bucket_4: 106991
Critical_ROB_Stalls_Percent_0_Bucket_5: 70656
Non-critical_ROB_Stalls_Percent_0_Bucket_5: 93472
Critical_ROB_Stalls_Percent_0_Bucket_6: 238798
Non-critical_ROB_Stalls_Percent_0_Bucket_6: 282253
Critical_ROB_Stalls_Percent_1_Bucket_0: 50
Non-critical_ROB_Stalls_Percent_1_Bucket_0: 1205197
Critical_ROB_Stalls_Percent_1_Bucket_1: 9500
Non-critical_ROB_Stalls_Percent_1_Bucket_1: 768300
Critical_ROB_Stalls_Percent_1_Bucket_2: 57516
Non-critical_ROB_Stalls_Percent_1_Bucket_2: 312186
Critical_ROB_Stalls_Percent_1_Bucket_3: 68207
Non-critical_ROB_Stalls_Percent_1_Bucket_3: 155430
Critical_ROB_Stalls_Percent_1_Bucket_4: 67284
Non-critical_ROB_Stalls_Percent_1_Bucket_4: 106991
Critical_ROB_Stalls_Percent_1_Bucket_5: 70656
Non-critical_ROB_Stalls_Percent_1_Bucket_5: 93472
Critical_ROB_Stalls_Percent_1_Bucket_6: 238798
Non-critical_ROB_Stalls_Percent_1_Bucket_6: 282253
Critical_ROB_Stalls_Percent_2_Bucket_0: 50
Non-critical_ROB_Stalls_Percent_2_Bucket_0: 1205197
Critical_ROB_Stalls_Percent_2_Bucket_1: 9500
Non-critical_ROB_Stalls_Percent_2_Bucket_1: 768300
Critical_ROB_Stalls_Percent_2_Bucket_2: 57516
Non-critical_ROB_Stalls_Percent_2_Bucket_2: 312186
Critical_ROB_Stalls_Percent_2_Bucket_3: 68207
Non-critical_ROB_Stalls_Percent_2_Bucket_3: 155430
Critical_ROB_Stalls_Percent_2_Bucket_4: 67284
Non-critical_ROB_Stalls_Percent_2_Bucket_4: 106991
Critical_ROB_Stalls_Percent_2_Bucket_5: 70656
Non-critical_ROB_Stalls_Percent_2_Bucket_5: 93472
Critical_ROB_Stalls_Percent_2_Bucket_6: 238798
Non-critical_ROB_Stalls_Percent_2_Bucket_6: 282253
Critical_ROB_Stalls_Percent_3_Bucket_0: 50
Non-critical_ROB_Stalls_Percent_3_Bucket_0: 1205197
Critical_ROB_Stalls_Percent_3_Bucket_1: 9500
Non-critical_ROB_Stalls_Percent_3_Bucket_1: 768300
Critical_ROB_Stalls_Percent_3_Bucket_2: 57516
Non-critical_ROB_Stalls_Percent_3_Bucket_2: 312186
Critical_ROB_Stalls_Percent_3_Bucket_3: 68207
Non-critical_ROB_Stalls_Percent_3_Bucket_3: 155430
Critical_ROB_Stalls_Percent_3_Bucket_4: 67284
Non-critical_ROB_Stalls_Percent_3_Bucket_4: 106991
Critical_ROB_Stalls_Percent_3_Bucket_5: 70656
Non-critical_ROB_Stalls_Percent_3_Bucket_5: 93472
Critical_ROB_Stalls_Percent_3_Bucket_6: 238798
Non-critical_ROB_Stalls_Percent_3_Bucket_6: 282253
Critical_ROB_Stalls_Percent_4_Bucket_0: 50
Non-critical_ROB_Stalls_Percent_4_Bucket_0: 1205197
Critical_ROB_Stalls_Percent_4_Bucket_1: 9500
Non-critical_ROB_Stalls_Percent_4_Bucket_1: 768300
Critical_ROB_Stalls_Percent_4_Bucket_2: 57516
Non-critical_ROB_Stalls_Percent_4_Bucket_2: 312186
Critical_ROB_Stalls_Percent_4_Bucket_3: 68207
Non-critical_ROB_Stalls_Percent_4_Bucket_3: 155430
Critical_ROB_Stalls_Percent_4_Bucket_4: 67284
Non-critical_ROB_Stalls_Percent_4_Bucket_4: 106991
Critical_ROB_Stalls_Percent_4_Bucket_5: 70656
Non-critical_ROB_Stalls_Percent_4_Bucket_5: 93472
Critical_ROB_Stalls_Percent_4_Bucket_6: 238798
Non-critical_ROB_Stalls_Percent_4_Bucket_6: 282253
Critical_ROB_Stalls_Percent_5_Bucket_0: 50
Non-critical_ROB_Stalls_Percent_5_Bucket_0: 1205197
Critical_ROB_Stalls_Percent_5_Bucket_1: 9500
Non-critical_ROB_Stalls_Percent_5_Bucket_1: 768300
Critical_ROB_Stalls_Percent_5_Bucket_2: 57516
Non-critical_ROB_Stalls_Percent_5_Bucket_2: 312186
Critical_ROB_Stalls_Percent_5_Bucket_3: 68207
Non-critical_ROB_Stalls_Percent_5_Bucket_3: 155430
Critical_ROB_Stalls_Percent_5_Bucket_4: 67284
Non-critical_ROB_Stalls_Percent_5_Bucket_4: 106991
Critical_ROB_Stalls_Percent_5_Bucket_5: 70656
Non-critical_ROB_Stalls_Percent_5_Bucket_5: 93472
Critical_ROB_Stalls_Percent_5_Bucket_6: 238798
Non-critical_ROB_Stalls_Percent_5_Bucket_6: 282253
Critical_ROB_Stalls_Percent_6_Bucket_0: 50
Non-critical_ROB_Stalls_Percent_6_Bucket_0: 1205197
Critical_ROB_Stalls_Percent_6_Bucket_1: 9500
Non-critical_ROB_Stalls_Percent_6_Bucket_1: 768300
Critical_ROB_Stalls_Percent_6_Bucket_2: 57516
Non-critical_ROB_Stalls_Percent_6_Bucket_2: 312186
Critical_ROB_Stalls_Percent_6_Bucket_3: 68207
Non-critical_ROB_Stalls_Percent_6_Bucket_3: 155430
Critical_ROB_Stalls_Percent_6_Bucket_4: 67284
Non-critical_ROB_Stalls_Percent_6_Bucket_4: 106991
Critical_ROB_Stalls_Percent_6_Bucket_5: 70656
Non-critical_ROB_Stalls_Percent_6_Bucket_5: 93472
Critical_ROB_Stalls_Percent_6_Bucket_6: 238798
Non-critical_ROB_Stalls_Percent_6_Bucket_6: 282253
Critical_ROB_Stalls_Percent_7_Bucket_0: 50
Non-critical_ROB_Stalls_Percent_7_Bucket_0: 1205197
Critical_ROB_Stalls_Percent_7_Bucket_1: 9500
Non-critical_ROB_Stalls_Percent_7_Bucket_1: 768300
Critical_ROB_Stalls_Percent_7_Bucket_2: 57516
Non-critical_ROB_Stalls_Percent_7_Bucket_2: 312186
Critical_ROB_Stalls_Percent_7_Bucket_3: 68207
Non-critical_ROB_Stalls_Percent_7_Bucket_3: 155430
Critical_ROB_Stalls_Percent_7_Bucket_4: 67284
Non-critical_ROB_Stalls_Percent_7_Bucket_4: 106991
Critical_ROB_Stalls_Percent_7_Bucket_5: 70656
Non-critical_ROB_Stalls_Percent_7_Bucket_5: 93472
Critical_ROB_Stalls_Percent_7_Bucket_6: 238798
Non-critical_ROB_Stalls_Percent_7_Bucket_6: 282253
Critical_ROB_Stalls_Percent_8_Bucket_0: 50
Non-critical_ROB_Stalls_Percent_8_Bucket_0: 1205197
Critical_ROB_Stalls_Percent_8_Bucket_1: 9500
Non-critical_ROB_Stalls_Percent_8_Bucket_1: 768300
Critical_ROB_Stalls_Percent_8_Bucket_2: 57516
Non-critical_ROB_Stalls_Percent_8_Bucket_2: 312186
Critical_ROB_Stalls_Percent_8_Bucket_3: 68207
Non-critical_ROB_Stalls_Percent_8_Bucket_3: 155430
Critical_ROB_Stalls_Percent_8_Bucket_4: 67284
Non-critical_ROB_Stalls_Percent_8_Bucket_4: 106991
Critical_ROB_Stalls_Percent_8_Bucket_5: 70656
Non-critical_ROB_Stalls_Percent_8_Bucket_5: 93472
Critical_ROB_Stalls_Percent_8_Bucket_6: 238798
Non-critical_ROB_Stalls_Percent_8_Bucket_6: 282253
Average ROB occupancy Load Stall Begin: 118.348
Average ROB occupancy Load Stall End: 127.375
Min ROB occupancy Load Stall Begin: 1
Max ROB occupancy Load Stall Begin: 352
Min ROB occupancy Load Stall End: 1
Max ROB occupancy Load Stall End: 352
Average ROB occupancy Critical Load Stall Begin: -nan
Average ROB occupancy Critical Load Stall End: -nan
Min ROB occupancy Critical Load Stall Begin: 400
Max ROB occupancy Critical Load Stall Begin: 0
Min ROB occupancy Critical Load Stall End: 400
Max ROB occupancy Critical Load Stall End: 0
 ROB Load Stall Begin Bucket Count 0: 1494576
 ROB Load Stall End Bucket Count 0: 1205247
 ROB Critical Load Stall Begin Bucket Count 0: 0
 ROB Critical Load Stall End Bucket Count 0: 0
 ROB Load Stall Begin Bucket Count 1: 601703
 ROB Load Stall End Bucket Count 1: 777800
 ROB Critical Load Stall Begin Bucket Count 1: 0
 ROB Critical Load Stall End Bucket Count 1: 0
 ROB Load Stall Begin Bucket Count 2: 310976
 ROB Load Stall End Bucket Count 2: 369702
 ROB Critical Load Stall Begin Bucket Count 2: 0
 ROB Critical Load Stall End Bucket Count 2: 0
 ROB Load Stall Begin Bucket Count 3: 196924
 ROB Load Stall End Bucket Count 3: 223637
 ROB Critical Load Stall Begin Bucket Count 3: 0
 ROB Critical Load Stall End Bucket Count 3: 0
 ROB Load Stall Begin Bucket Count 4: 166939
 ROB Load Stall End Bucket Count 4: 174275
 ROB Critical Load Stall Begin Bucket Count 4: 0
 ROB Critical Load Stall End Bucket Count 4: 0
 ROB Load Stall Begin Bucket Count 5: 156900
 ROB Load Stall End Bucket Count 5: 164128
 ROB Critical Load Stall Begin Bucket Count 5: 0
 ROB Critical Load Stall End Bucket Count 5: 0
 ROB Load Stall Begin Bucket Count 6: 507822
 ROB Load Stall End Bucket Count 6: 521051
 ROB Critical Load Stall Begin Bucket Count 6: 0
 ROB Critical Load Stall End Bucket Count 6: 0
PIST Tag Read Accesses: 0
PIST Read Accesses: 0
PIST Tag Write Accesses: 0
PIST Write Accesses: 0
Criticality detector called times: 0
Max global_stall_cycles_count: 0
Threshold Modified: 0 times, factor: 0
ITLB TOTAL     ACCESS:    9525513  HIT:    9311327  MISS:     214186  HIT %:    97.7514  MISS %:    2.24855   MPKI: 4.28372
ITLB LOAD TRANSLATION ACCESS:    8394261  HIT:    8332615  MISS:      61646  HIT %:    99.2656  MISS %:   0.734383   MPKI: 1.23292
ITLB TRANSLATION FROM L1D PREFETCHER ACCESS:    1131252  HIT:     978712  MISS:     152540  HIT %:    86.5158  MISS %:    13.4842   MPKI: 3.0508
ITLB PREFETCH  REQUESTED:          0  ISSUED:          0  USEFUL:     125281  USELESS:      27254
ITLB USEFUL LOAD PREFETCHES:     125281 PREFETCH ISSUED TO LOWER LEVEL:          0  ACCURACY: inf
ITLB TIMELY PREFETCHES:     125281 LATE PREFETCHES: 918 DROPPED PREFETCHES: 11762
ITLB PREFETCHES SAME FILL-ORIGIN LEVEL: 0 DIFFERENT FILL-ORIGIN LEVEL: 0
ITLB AVERAGE MISS LATENCY: 196101 cycles
ITLB RQ	ACCESS:   12940520	FORWARD:          0	MERGED:    3374609	TO_CACHE:    9565911

DTLB TOTAL     ACCESS:   10012461  HIT:    8694117  MISS:    1318344  HIT %:     86.833  MISS %:     13.167   MPKI: 26.3669
DTLB LOAD TRANSLATION ACCESS:   10012461  HIT:    8694117  MISS:    1318344  HIT %:     86.833  MISS %:     13.167   MPKI: 26.3669
DTLB PREFETCH  REQUESTED:          0  ISSUED:          0  USEFUL:          0  USELESS:          0
DTLB USEFUL LOAD PREFETCHES:          0 PREFETCH ISSUED TO LOWER LEVEL:          0  ACCURACY: -nan
DTLB TIMELY PREFETCHES:          0 LATE PREFETCHES: 0 DROPPED PREFETCHES: 0
DTLB PREFETCHES SAME FILL-ORIGIN LEVEL: 0 DIFFERENT FILL-ORIGIN LEVEL: 0
DTLB AVERAGE MISS LATENCY: 11.6198 cycles
DTLB RQ	ACCESS:   13008952	FORWARD:          0	MERGED:    2957445	TO_CACHE:   10051507

STLB TOTAL     ACCESS:    1532529  HIT:    1425557  MISS:     106972  HIT %:    93.0199  MISS %:     6.9801   MPKI: 2.13944
STLB LOAD TRANSLATION ACCESS:    1379072  HIT:    1296923  MISS:      82149  HIT %:    94.0432  MISS %:    5.95683   MPKI: 1.64298
STLB TRANSLATION FROM L1D PREFETCHER ACCESS:     153457  HIT:     128634  MISS:      24823  HIT %:    83.8241  MISS %:    16.1759   MPKI: 0.49646
STLB PREFETCH  REQUESTED:          0  ISSUED:          0  USEFUL:      14567  USELESS:      10243
STLB USEFUL LOAD PREFETCHES:      14567 PREFETCH ISSUED TO LOWER LEVEL:          0  ACCURACY: inf
STLB TIMELY PREFETCHES:      14567 LATE PREFETCHES: 1 DROPPED PREFETCHES: 11762
STLB PREFETCHES SAME FILL-ORIGIN LEVEL: 0 DIFFERENT FILL-ORIGIN LEVEL: 0
STLB AVERAGE MISS LATENCY: 45.7143 cycles
STLB RQ	ACCESS:    1544291	FORWARD:          0	MERGED:          0	TO_CACHE:    1544291

STLB Hit, L1D data hit: 0
STLB Hit, L2C data hit: 0
STLB Hit, LLC data hit: 0
STLB Hit, LLC data miss: 0
STLB STLB hints to L2: 0
L1D TOTAL     ACCESS:   12861123  HIT:   11201147  MISS:    1659976  HIT %:    87.0931  MISS %:    12.9069   MPKI: 33.1995
L1D LOAD      ACCESS:    8115292  HIT:    6548112  MISS:    1567180  HIT %:    80.6886  MISS %:    19.3114   MPKI: 31.3436
L1D RFO       ACCESS:    4745831  HIT:    4653035  MISS:      92796  HIT %:    98.0447  MISS %:    1.95532   MPKI: 1.85592
L1D PREFETCH  REQUESTED:          0  ISSUED:          0  USEFUL:          0  USELESS:          0
L1D USEFUL LOAD PREFETCHES:          0 PREFETCH ISSUED TO LOWER LEVEL:          0  ACCURACY: -nan
L1D TIMELY PREFETCHES:          0 LATE PREFETCHES: 0 DROPPED PREFETCHES: 0
L1D PREFETCHES SAME FILL-ORIGIN LEVEL: 0 DIFFERENT FILL-ORIGIN LEVEL: 0
L1D AVERAGE MISS LATENCY: 26.5105 cycles
L1D RQ	ACCESS:   11602716	FORWARD:          0	MERGED:    3371450	TO_CACHE:    8150605
L1D WQ	ACCESS:    4965307	FORWARD:      80661	MERGED:     106960	TO_CACHE:    4858347

L1D UNIQUE REGIONS ACCESSED: 0
L1D REGIONS CONFLICTS: 0
L1D Cross Page Prefetch Requests: 0
L1D Same Page Prefetch Requests: 0
L1D ROI Sum of L1D PQ occupancy: 0
L1D PREFETCHES PUSHED FROM L2C: 0
L1I TOTAL     ACCESS:   12783155  HIT:   10974362  MISS:    1808793  HIT %:    85.8502  MISS %:    14.1498   MPKI: 36.1759
L1I LOAD      ACCESS:   10144985  HIT:    9923784  MISS:     221201  HIT %:    97.8196  MISS %:     2.1804   MPKI: 4.42402
L1I PREFETCH  ACCESS:    2638170  HIT:    1050578  MISS:    1587592  HIT %:    39.8222  MISS %:    60.1778   MPKI: 31.7518
L1I PREFETCH  REQUESTED:    2870803  ISSUED:    2863866  USEFUL:    1049841  USELESS:     537707
L1I USEFUL LOAD PREFETCHES:    1049841 PREFETCH ISSUED TO LOWER LEVEL:    1617337  ACCURACY: 64.9117
L1I TIMELY PREFETCHES:    1049841 LATE PREFETCHES: 29745 DROPPED PREFETCHES: 37741
L1I PREFETCHES SAME FILL-ORIGIN LEVEL: 1617337 DIFFERENT FILL-ORIGIN LEVEL: 0
L1I AVERAGE MISS LATENCY: 746784 cycles
L1I RQ	ACCESS:   14601609	FORWARD:          0	MERGED:    4433106	TO_CACHE:   10168503
L1I PQ	ACCESS:    2863866	FORWARD:          0	MERGED:      91849	TO_CACHE:    2772017

BTB TOTAL     ACCESS:    5599981  HIT:    4872062  MISS:     727919  HIT %:    87.0014  MISS %:    12.9986   MPKI: 14.5584
BTB BRANCH_DIRECT_JUMP	ACCESS:     449946  HIT:     393873  MISS:      56073
BTB BRANCH_INDIRECT	ACCESS:     140210  HIT:     110632  MISS:      29578
BTB BRANCH_CONDITIONAL	ACCESS:    3238716  HIT:    3009561  MISS:     229155
BTB BRANCH_DIRECT_CALL	ACCESS:     701578  HIT:     595974  MISS:     105604
BTB BRANCH_INDIRECT_CALL	ACCESS:     168971  HIT:     157981  MISS:      10990
BTB BRANCH_RETURN	ACCESS:     900560  HIT:     604041  MISS:     296519
BTB BRANCH_OTHER ACCESS:          0  HIT:          0  MISS:          0

L2C TOTAL     ACCESS:    3959198  HIT:    2901939  MISS:    1057259  HIT %:    73.2961  MISS %:    26.7039   MPKI: 21.1452
L2C LOAD      ACCESS:    1758613  HIT:    1394236  MISS:     364377  HIT %:    79.2804  MISS %:    20.7196   MPKI: 7.28754
L2C DATA LOAD MPKI: 5.67862
L2C INSTRUCTION LOAD MPKI: 1.60892
L2C RFO       ACCESS:      92795  HIT:      46968  MISS:      45827  HIT %:    50.6148  MISS %:    49.3852   MPKI: 0.91654
L2C PREFETCH  ACCESS:    1711060  HIT:    1139565  MISS:     571495  HIT %:    66.5999  MISS %:    33.4001   MPKI: 11.4299
L2C DATA PREFETCH MPKI: 0.01702
L2C INSTRUCTION PREFETCH MPKI: 11.4129
L2C WRITEBACK ACCESS:     239251  HIT:     218846  MISS:      20405  HIT %:    91.4713  MISS %:     8.5287   MPKI: 0.4081
L2C LOAD TRANSLATION ACCESS:     108472  HIT:      62892  MISS:      45580  HIT %:    57.9799  MISS %:    42.0201   MPKI: 0.9116
L2C TRANSLATION FROM L1D PREFETCHER ACCESS:      49007  HIT:      39432  MISS:       9575  HIT %:     80.462  MISS %:     19.538   MPKI: 0.1915
L2C PREFETCH  REQUESTED:     436153  ISSUED:     436153  USEFUL:      17275  USELESS:     565056
L2C USEFUL LOAD PREFETCHES:      17275 PREFETCH ISSUED TO LOWER LEVEL:     841558  ACCURACY: 2.05274
L2C TIMELY PREFETCHES:      17275 LATE PREFETCHES: 620 DROPPED PREFETCHES: 0
L2C PREFETCHES SAME FILL-ORIGIN LEVEL: 1471 DIFFERENT FILL-ORIGIN LEVEL: 269443
L2C AVERAGE MISS LATENCY: 38.8361 cycles
L2C RQ	ACCESS:    2008911	FORWARD:          0	MERGED:          0	TO_CACHE:    2008887
L2C WQ	ACCESS:     239251	FORWARD:         24	MERGED:          0	TO_CACHE:     239251
L2C PQ	ACCESS:    2053490	FORWARD:          0	MERGED:      71157	TO_CACHE:    1982333

L2C Instructions Evicting Data 216329
L2C Translations Evicting Data 18396
L2C Data Evicting Data 108068
L2C Instructions Evicting Instructions 400944
L2C Translations Evicting Instructions 33956
L2C Data Evicting Instructions 204931
L2C Instructions Evicting Translations 33817
L2C Translations Evicting Translations 2803
L2C Data Evicting Translations 17610
L2C Dense regions hint from L2: 0
PSCL5 TOTAL     ACCESS:     118733  HIT:     118733  MISS:          0  HIT %:        100  MISS %:          0   MPKI: 0
PSCL5 LOAD TRANSLATION ACCESS:      82147  HIT:      82147  MISS:          0  HIT %:        100  MISS %:          0   MPKI: 0
PSCL5 TRANSLATION FROM L1D PREFETCHER ACCESS:      36586  HIT:      36586  MISS:          0  HIT %:        100  MISS %:          0   MPKI: 0
PSCL5 PREFETCH  REQUESTED:          0  ISSUED:          0  USEFUL:          0  USELESS:          0
PSCL5 USEFUL LOAD PREFETCHES:          0 PREFETCH ISSUED TO LOWER LEVEL:          0  ACCURACY: -nan
PSCL5 TIMELY PREFETCHES:          0 LATE PREFETCHES: 0 DROPPED PREFETCHES: 0
PSCL5 PREFETCHES SAME FILL-ORIGIN LEVEL: 0 DIFFERENT FILL-ORIGIN LEVEL: 0

PSCL4 TOTAL     ACCESS:     106748  HIT:     106454  MISS:        294  HIT %:    99.7246  MISS %:   0.275415   MPKI: 0.00588
PSCL4 LOAD TRANSLATION ACCESS:      72531  HIT:      72237  MISS:        294  HIT %:    99.5947  MISS %:   0.405344   MPKI: 0.00588
PSCL4 TRANSLATION FROM L1D PREFETCHER ACCESS:      34217  HIT:      34217  MISS:          0  HIT %:        100  MISS %:          0   MPKI: 0
PSCL4 PREFETCH  REQUESTED:          0  ISSUED:          0  USEFUL:          0  USELESS:          0
PSCL4 USEFUL LOAD PREFETCHES:          0 PREFETCH ISSUED TO LOWER LEVEL:          0  ACCURACY: -nan
PSCL4 TIMELY PREFETCHES:          0 LATE PREFETCHES: 0 DROPPED PREFETCHES: 0
PSCL4 PREFETCHES SAME FILL-ORIGIN LEVEL: 0 DIFFERENT FILL-ORIGIN LEVEL: 0

PSCL3 TOTAL     ACCESS:     116810  HIT:     115943  MISS:        867  HIT %:    99.2578  MISS %:   0.742231   MPKI: 0.01734
PSCL3 LOAD TRANSLATION ACCESS:      81627  HIT:      80760  MISS:        867  HIT %:    98.9379  MISS %:    1.06215   MPKI: 0.01734
PSCL3 TRANSLATION FROM L1D PREFETCHER ACCESS:      35183  HIT:      35183  MISS:          0  HIT %:        100  MISS %:          0   MPKI: 0
PSCL3 PREFETCH  REQUESTED:          0  ISSUED:          0  USEFUL:          0  USELESS:          0
PSCL3 USEFUL LOAD PREFETCHES:          0 PREFETCH ISSUED TO LOWER LEVEL:          0  ACCURACY: -nan
PSCL3 TIMELY PREFETCHES:          0 LATE PREFETCHES: 0 DROPPED PREFETCHES: 0
PSCL3 PREFETCHES SAME FILL-ORIGIN LEVEL: 0 DIFFERENT FILL-ORIGIN LEVEL: 0

PSCL2 TOTAL     ACCESS:     110513  HIT:      81904  MISS:      28609  HIT %:    74.1125  MISS %:    25.8875   MPKI: 0.57218
PSCL2 LOAD TRANSLATION ACCESS:      85390  HIT:      56781  MISS:      28609  HIT %:    66.4961  MISS %:    33.5039   MPKI: 0.57218
PSCL2 TRANSLATION FROM L1D PREFETCHER ACCESS:      25123  HIT:      25123  MISS:          0  HIT %:        100  MISS %:          0   MPKI: 0
PSCL2 PREFETCH  REQUESTED:          0  ISSUED:          0  USEFUL:          0  USELESS:          0
PSCL2 USEFUL LOAD PREFETCHES:          0 PREFETCH ISSUED TO LOWER LEVEL:          0  ACCURACY: -nan
PSCL2 TIMELY PREFETCHES:          0 LATE PREFETCHES: 0 DROPPED PREFETCHES: 0
PSCL2 PREFETCHES SAME FILL-ORIGIN LEVEL: 0 DIFFERENT FILL-ORIGIN LEVEL: 0

LLC TOTAL     ACCESS:    1424664  HIT:    1357344  MISS:      67320  HIT %:    95.2747  MISS %:    4.72532   MPKI: 1.3464
LLC LOAD      ACCESS:     363756  HIT:     317134  MISS:      46622  HIT %:    87.1832  MISS %:    12.8168   MPKI: 0.93244
LLC RFO       ACCESS:      45827  HIT:      35012  MISS:      10815  HIT %:    76.4004  MISS %:    23.5996   MPKI: 0.2163
LLC PREFETCH  ACCESS:     839318  HIT:     830871  MISS:       8447  HIT %:    98.9936  MISS %:    1.00641   MPKI: 0.16894
LLC WRITEBACK ACCESS:     120608  HIT:     120153  MISS:        455  HIT %:    99.6227  MISS %:   0.377255   MPKI: 0.0091
LLC LOAD TRANSLATION ACCESS:      45580  HIT:      44626  MISS:        954  HIT %:     97.907  MISS %:    2.09302   MPKI: 0.01908
LLC TRANSLATION FROM L1D PREFETCHER ACCESS:       9575  HIT:       9548  MISS:         27  HIT %:     99.718  MISS %:   0.281984   MPKI: 0.00054
LLC PREFETCH  REQUESTED:          0  ISSUED:          0  USEFUL:       1094  USELESS:       5357
LLC USEFUL LOAD PREFETCHES:       1094 PREFETCH ISSUED TO LOWER LEVEL:       8542  ACCURACY: 12.8073
LLC TIMELY PREFETCHES:       1094 LATE PREFETCHES: 95 DROPPED PREFETCHES: 0
LLC PREFETCHES SAME FILL-ORIGIN LEVEL: 4755 DIFFERENT FILL-ORIGIN LEVEL: 0
LLC AVERAGE MISS LATENCY: 158.724 cycles
LLC RQ	ACCESS:     464739	FORWARD:          0	MERGED:          0	TO_CACHE:     464738
LLC WQ	ACCESS:     120608	FORWARD:          1	MERGED:          0	TO_CACHE:     120608
LLC PQ	ACCESS:     841558	FORWARD:          0	MERGED:       1665	TO_CACHE:     839893

LLC Dense regions hint to LLC: 0

RAW hits: 1005501
Loads Generated: 12608216
Loads sent to L1D: 11602716
Stores Generated: 4965302
Stores sent to L1D: 4965307
Major fault: 0 Minor fault: 5909
Allocated PAGES: 5909
I-Shadow cache 408 bytes
Touched + WorthPF tables 6144 bytes 
MMA filter 174 bytes 
FNL filter 272 bytes 
TOTAL PREFETCHER STORAGE SIZE: 25174 bytes
CPU 0 L1I next line prefetcher final stats
 All Calls: 5714853
 Critical Calls: 786454
------------------
Depth Distribution
------------------
depth 0: 0
depth 1: 315790
depth 2: 63994
depth 3: 40392
depth 4: 13560
depth 5: 2243
depth 6: 899
depth 7: 3
depth 8: 3
depth 9: 3
depth 10: 2
depth 11: 1
depth 12: 1
depth 13: 0
depth 14: 0
depth 15: 0
depth 16: 0
depth 17: 0
depth 18: 0
depth 19: 0
depth 20: 0
depth 21: 0
depth 22: 0
depth 23: 0
depth 24: 0
depth 25: 0
depth 26: 0
depth 27: 0
depth 28: 0
depth 29: 0
Total: 436891
-----------------------------
-----------------------------
	Captured at Filter
-----------------------------
depth 0: 0
depth 1: 454071
depth 2: 432495
depth 3: 403833
depth 4: 371345
depth 5: 324032
depth 6: 87449
depth 7: 0
depth 8: 0
depth 9: 0
depth 10: 0
depth 11: 0
depth 12: 0
depth 13: 0
depth 14: 0
depth 15: 0
depth 16: 0
depth 17: 0
depth 18: 0
depth 19: 0
depth 20: 0
depth 21: 0
depth 22: 0
depth 23: 0
depth 24: 0
depth 25: 0
depth 26: 0
depth 27: 0
depth 28: 0
depth 29: 0
-----------------------------
-----------------------------
		Lost at Page
-----------------------------
depth 0: 0
depth 1: 8096
depth 2: 2746
depth 3: 2652
depth 4: 1025
depth 5: 24
depth 6: 1
depth 7: 1
depth 8: 1
depth 9: 1
depth 10: 0
depth 11: 0
depth 12: 0
depth 13: 0
depth 14: 0
depth 15: 0
depth 16: 0
depth 17: 0
depth 18: 0
depth 19: 0
depth 20: 0
depth 21: 0
depth 22: 0
depth 23: 0
depth 24: 0
depth 25: 0
depth 26: 0
depth 27: 0
depth 28: 0
depth 29: 0
-----------------------------
-----------------------------
	Lost due to PQ Size
-----------------------------
0
-----------------------------
ST read accesses: 741349
ST write accesses: 17095
PT read accesses: 16434065
PT write accesses: 786496
FILTER read accesses: 4325016
FILTER write accesses: 1070746
GHR read accesses: 238197
GHR write accesses: 14534
GHR counter read accesses: 14439816
GHR counter write accesses: 771127
ST tag read accesses: 300564291
ST tag write accesses: 28651273

DRAM Statistics
 CHANNEL 0
 RQ ROW_BUFFER_HIT:       9393  ROW_BUFFER_MISS:      57472
 DBUS_CONGESTED:         30
 WQ ROW_BUFFER_HIT:       9376  ROW_BUFFER_MISS:      41912  FULL:          0

 AVG_CONGESTED_CYCLE: 4
 All warmup complete: 2
Channel 0 Bank busy for read cycles: 0
Channel 0 Bank busy for write cycles: 0
Channel 0
Rank 0
0banks busy for read cycles: 72043118
0banks busy for write cycles: 23906
1banks busy for read cycles: 5298651
1banks busy for write cycles: 3219700
2banks busy for read cycles: 1113192
2banks busy for write cycles: 1001084
3banks busy for read cycles: 234895
3banks busy for write cycles: 315524
4banks busy for read cycles: 77974
4banks busy for write cycles: 149962
5banks busy for read cycles: 37153
5banks busy for write cycles: 100632
6banks busy for read cycles: 25090
6banks busy for write cycles: 79588
7banks busy for read cycles: 13938
7banks busy for write cycles: 86961
8banks busy for read cycles: 15064
8banks busy for write cycles: 128718

CPU 0 Branch Prediction Accuracy: 99.5528% MPKI: 0.89798 Average ROB Occupancy at Mispredict: 63.0737
Branch types
NOT_BRANCH: 39958755 79.9175%
BRANCH_DIRECT_JUMP: 449946 0.899892%
BRANCH_INDIRECT: 140210 0.28042%
BRANCH_CONDITIONAL: 7679655 15.3593%
BRANCH_DIRECT_CALL: 701578 1.40316%
BRANCH_INDIRECT_CALL: 168971 0.337942%
BRANCH_RETURN: 900560 1.80112%
BRANCH_OTHER: 0 0%

DRAM PAGES: 1048576
Allocated PAGES: 5909
