
*** ChampSim Multicore Out-of-Order Simulator ***

Warmup Instructions: 50000000
Simulation Instructions: 50000000
Number of CPUs: 1
LLC sets: 2048
LLC ways: 16
Off-chip DRAM Size: 4096 MB Channels: 1 Width: 64-bit Data Rate: 6400 MT/s
CPU 0 runs ../IPC-traces//server_030.champsimtrace.xz
.xz
BTB has LRU replacement policy
ITLB has LRU replacement policy
DTLB has LRU replacement policy
STLB has LRU replacement policy
CPU 0 L1I next line prefetcher
L1I has LRU replacement policy
IP Table Entries: 64
L1D has LRU replacement policy
Initialize SRRIP state for L2C
Initialize DRRIP state for LLC
Heartbeat CPU 0 instructions: 10000003 cycles: 2887271 heartbeat IPC: 3.46348 cumulative IPC: 3.46348 (Simulation time: 0 hr 2 min 57 sec) 
Heartbeat CPU 0 instructions: 20000003 cycles: 5770752 heartbeat IPC: 3.46803 cumulative IPC: 3.46575 (Simulation time: 0 hr 5 min 46 sec) 
Heartbeat CPU 0 instructions: 30000003 cycles: 8654630 heartbeat IPC: 3.46755 cumulative IPC: 3.46635 (Simulation time: 0 hr 8 min 36 sec) 
Heartbeat CPU 0 instructions: 40000001 cycles: 11539068 heartbeat IPC: 3.46688 cumulative IPC: 3.46648 (Simulation time: 0 hr 11 min 24 sec) 
Heartbeat CPU 0 instructions: 50000002 cycles: 14424495 heartbeat IPC: 3.46569 cumulative IPC: 3.46633 (Simulation time: 0 hr 14 min 7 sec) 

Warmup complete CPU 0 instructions: 50000002 cycles: 14424495 (Simulation time: 0 hr 14 min 7 sec) 

Heartbeat CPU 0 instructions: 60000000 cycles: 30466443 heartbeat IPC: 0.623366 cumulative IPC: 0.623366 (Simulation time: 0 hr 17 min 17 sec) 
Heartbeat CPU 0 instructions: 70000002 cycles: 46532468 heartbeat IPC: 0.622432 cumulative IPC: 0.622898 (Simulation time: 0 hr 20 min 25 sec) 
Heartbeat CPU 0 instructions: 80000001 cycles: 62467968 heartbeat IPC: 0.62753 cumulative IPC: 0.624434 (Simulation time: 0 hr 23 min 36 sec) 
*** Reached end of trace for Core: 0 Repeating trace: ../IPC-traces//server_030.champsimtrace.xz
Heartbeat CPU 0 instructions: 90000002 cycles: 78479980 heartbeat IPC: 0.624531 cumulative IPC: 0.624459 (Simulation time: 0 hr 26 min 35 sec) 
Heartbeat CPU 0 instructions: 100000000 cycles: 94327035 heartbeat IPC: 0.631032 cumulative IPC: 0.625762 (Simulation time: 0 hr 30 min 11 sec) 
Finished CPU 0 instructions: 50000002 cycles: 79902541 cumulative IPC: 0.625762 (Simulation time: 0 hr 30 min 11 sec) 

ChampSim completed all CPUs

Region of Interest Statistics

CPU 0 cumulative IPC: 0.625762 instructions: 50000002 cycles: 79902541

CPU 0 Average Load ROB stall cycles: 1.9423e+07
CPU 0 Fraction of times ROB stalled by Loads: 35.6822
CPU 0 Percentage of Load stall cycles in Total stall cycles: 2.76398e+08
Issued all: 28206634
Issued LT all: 22301579
rob_not_full_when_issued_lt_all: 22261576
Issued LT one: 17388636
rob_not_full_when_issued_lt_one: 17354361
HPCA_2009 critical_dynamic_instances_0: 18116
HPCA_2009 unique_critical_ips_0: 6515
multiple_destinations_0: 0
load_to_same_dest_0: 0
low_issue_rate_0: 16759143
total_issue_rate_checked_count_0: 18130523
 Total stall cycles: 67377056
 Total load stall cycles: 186228811943226
Unique Load IPs: 12305
CPU 0 NUM of IPS identified critical: 0
CPU 0 Num of Load IPs stalling ROB: 0
Threshold modification factor: 0
Trouble in retire width: -nan
MaC = Marked as critical.
lt_50_percent_before_Mac: 0
gt_90_percent_before_Mac: 0
gt_75_percent_before_Mac: 0
gt_50_percent_before_Mac: 0
stall_proportion_bin_same_before_after: 0
stall_proportion_bin_lower_before_after: 0
stall_proportion_bin_upper_before_after: 0
average_stall_proportion_before: -nan
average_stall_proportion_after: -nan
Critical IP stalls, total frequency: 0
Non-critical IP stalls, total frequency: 0
Total Freq all stalling IPs: 0
Critical_IP_Detector_Accuracy_70: 0
Critical_IP_Detector_Accuracy_80: 0
Critical_IP_Detector_Accuracy_90: 0
Critical_IP_Detector_Coverage_70: 0
Critical_IP_Detector_Coverage_80: 0
Critical_IP_Detector_Coverage_90: 0
stat_90_percent_critical_ip_stalls_freq: 146869
stat_90_percent_non_critical_ip_stalls_freq: 18446744073709404747
AVERAGE_ROB_Occupancy_90_Percent_Critical_IP_Stalls: 33.8721
AVERAGE_ROB_Occupancy_90_Percent_Non_Critical_IP_Stalls: 7.74153e-12
Critical_IP_ROB_Stalls_Bucket_0: 0
Non-critical_IP_ROB_Stalls_Bucket_0: 2444192
Critical_IP_ROB_Stalls_Bucket_1: 0
Non-critical_IP_ROB_Stalls_Bucket_1: 700196
Critical_IP_ROB_Stalls_Bucket_2: 0
Non-critical_IP_ROB_Stalls_Bucket_2: 208666
Critical_IP_ROB_Stalls_Bucket_3: 0
Non-critical_IP_ROB_Stalls_Bucket_3: 45850
Critical_IP_ROB_Stalls_Bucket_4: 0
Non-critical_IP_ROB_Stalls_Bucket_4: 11583
Critical_IP_ROB_Stalls_Bucket_5: 0
Non-critical_IP_ROB_Stalls_Bucket_5: 5466
Critical_IP_ROB_Stalls_Bucket_6: 0
Non-critical_IP_ROB_Stalls_Bucket_6: 5282
0 => IPs accounting for >50 percent of stalls, 1 => 55, 2 => 60, 3 => 65 and so on till 90.
percent50: inf num IPs:  1
percent55: inf num IPs: 1
percent60: inf num IPs: 1
percent65: inf num IPs: 1
percent70: inf num IPs: 1
percent75: inf num IPs: 1
percent80: inf num IPs: 1
percent85: inf num IPs: 1
percent90: inf num IPs: 1
Critical_ROB_Stalls_Percent_0_Bucket_0: 144057
Non-critical_ROB_Stalls_Percent_0_Bucket_0: 2300135
Critical_ROB_Stalls_Percent_0_Bucket_1: 2788
Non-critical_ROB_Stalls_Percent_0_Bucket_1: 697408
Critical_ROB_Stalls_Percent_0_Bucket_2: 14
Non-critical_ROB_Stalls_Percent_0_Bucket_2: 208652
Critical_ROB_Stalls_Percent_0_Bucket_3: 9
Non-critical_ROB_Stalls_Percent_0_Bucket_3: 45841
Critical_ROB_Stalls_Percent_0_Bucket_4: 1
Non-critical_ROB_Stalls_Percent_0_Bucket_4: 11582
Critical_ROB_Stalls_Percent_0_Bucket_5: 0
Non-critical_ROB_Stalls_Percent_0_Bucket_5: 5466
Critical_ROB_Stalls_Percent_0_Bucket_6: 0
Non-critical_ROB_Stalls_Percent_0_Bucket_6: 5282
Critical_ROB_Stalls_Percent_1_Bucket_0: 144057
Non-critical_ROB_Stalls_Percent_1_Bucket_0: 2300135
Critical_ROB_Stalls_Percent_1_Bucket_1: 2788
Non-critical_ROB_Stalls_Percent_1_Bucket_1: 697408
Critical_ROB_Stalls_Percent_1_Bucket_2: 14
Non-critical_ROB_Stalls_Percent_1_Bucket_2: 208652
Critical_ROB_Stalls_Percent_1_Bucket_3: 9
Non-critical_ROB_Stalls_Percent_1_Bucket_3: 45841
Critical_ROB_Stalls_Percent_1_Bucket_4: 1
Non-critical_ROB_Stalls_Percent_1_Bucket_4: 11582
Critical_ROB_Stalls_Percent_1_Bucket_5: 0
Non-critical_ROB_Stalls_Percent_1_Bucket_5: 5466
Critical_ROB_Stalls_Percent_1_Bucket_6: 0
Non-critical_ROB_Stalls_Percent_1_Bucket_6: 5282
Critical_ROB_Stalls_Percent_2_Bucket_0: 144057
Non-critical_ROB_Stalls_Percent_2_Bucket_0: 2300135
Critical_ROB_Stalls_Percent_2_Bucket_1: 2788
Non-critical_ROB_Stalls_Percent_2_Bucket_1: 697408
Critical_ROB_Stalls_Percent_2_Bucket_2: 14
Non-critical_ROB_Stalls_Percent_2_Bucket_2: 208652
Critical_ROB_Stalls_Percent_2_Bucket_3: 9
Non-critical_ROB_Stalls_Percent_2_Bucket_3: 45841
Critical_ROB_Stalls_Percent_2_Bucket_4: 1
Non-critical_ROB_Stalls_Percent_2_Bucket_4: 11582
Critical_ROB_Stalls_Percent_2_Bucket_5: 0
Non-critical_ROB_Stalls_Percent_2_Bucket_5: 5466
Critical_ROB_Stalls_Percent_2_Bucket_6: 0
Non-critical_ROB_Stalls_Percent_2_Bucket_6: 5282
Critical_ROB_Stalls_Percent_3_Bucket_0: 144057
Non-critical_ROB_Stalls_Percent_3_Bucket_0: 2300135
Critical_ROB_Stalls_Percent_3_Bucket_1: 2788
Non-critical_ROB_Stalls_Percent_3_Bucket_1: 697408
Critical_ROB_Stalls_Percent_3_Bucket_2: 14
Non-critical_ROB_Stalls_Percent_3_Bucket_2: 208652
Critical_ROB_Stalls_Percent_3_Bucket_3: 9
Non-critical_ROB_Stalls_Percent_3_Bucket_3: 45841
Critical_ROB_Stalls_Percent_3_Bucket_4: 1
Non-critical_ROB_Stalls_Percent_3_Bucket_4: 11582
Critical_ROB_Stalls_Percent_3_Bucket_5: 0
Non-critical_ROB_Stalls_Percent_3_Bucket_5: 5466
Critical_ROB_Stalls_Percent_3_Bucket_6: 0
Non-critical_ROB_Stalls_Percent_3_Bucket_6: 5282
Critical_ROB_Stalls_Percent_4_Bucket_0: 144057
Non-critical_ROB_Stalls_Percent_4_Bucket_0: 2300135
Critical_ROB_Stalls_Percent_4_Bucket_1: 2788
Non-critical_ROB_Stalls_Percent_4_Bucket_1: 697408
Critical_ROB_Stalls_Percent_4_Bucket_2: 14
Non-critical_ROB_Stalls_Percent_4_Bucket_2: 208652
Critical_ROB_Stalls_Percent_4_Bucket_3: 9
Non-critical_ROB_Stalls_Percent_4_Bucket_3: 45841
Critical_ROB_Stalls_Percent_4_Bucket_4: 1
Non-critical_ROB_Stalls_Percent_4_Bucket_4: 11582
Critical_ROB_Stalls_Percent_4_Bucket_5: 0
Non-critical_ROB_Stalls_Percent_4_Bucket_5: 5466
Critical_ROB_Stalls_Percent_4_Bucket_6: 0
Non-critical_ROB_Stalls_Percent_4_Bucket_6: 5282
Critical_ROB_Stalls_Percent_5_Bucket_0: 144057
Non-critical_ROB_Stalls_Percent_5_Bucket_0: 2300135
Critical_ROB_Stalls_Percent_5_Bucket_1: 2788
Non-critical_ROB_Stalls_Percent_5_Bucket_1: 697408
Critical_ROB_Stalls_Percent_5_Bucket_2: 14
Non-critical_ROB_Stalls_Percent_5_Bucket_2: 208652
Critical_ROB_Stalls_Percent_5_Bucket_3: 9
Non-critical_ROB_Stalls_Percent_5_Bucket_3: 45841
Critical_ROB_Stalls_Percent_5_Bucket_4: 1
Non-critical_ROB_Stalls_Percent_5_Bucket_4: 11582
Critical_ROB_Stalls_Percent_5_Bucket_5: 0
Non-critical_ROB_Stalls_Percent_5_Bucket_5: 5466
Critical_ROB_Stalls_Percent_5_Bucket_6: 0
Non-critical_ROB_Stalls_Percent_5_Bucket_6: 5282
Critical_ROB_Stalls_Percent_6_Bucket_0: 144057
Non-critical_ROB_Stalls_Percent_6_Bucket_0: 2300135
Critical_ROB_Stalls_Percent_6_Bucket_1: 2788
Non-critical_ROB_Stalls_Percent_6_Bucket_1: 697408
Critical_ROB_Stalls_Percent_6_Bucket_2: 14
Non-critical_ROB_Stalls_Percent_6_Bucket_2: 208652
Critical_ROB_Stalls_Percent_6_Bucket_3: 9
Non-critical_ROB_Stalls_Percent_6_Bucket_3: 45841
Critical_ROB_Stalls_Percent_6_Bucket_4: 1
Non-critical_ROB_Stalls_Percent_6_Bucket_4: 11582
Critical_ROB_Stalls_Percent_6_Bucket_5: 0
Non-critical_ROB_Stalls_Percent_6_Bucket_5: 5466
Critical_ROB_Stalls_Percent_6_Bucket_6: 0
Non-critical_ROB_Stalls_Percent_6_Bucket_6: 5282
Critical_ROB_Stalls_Percent_7_Bucket_0: 144057
Non-critical_ROB_Stalls_Percent_7_Bucket_0: 2300135
Critical_ROB_Stalls_Percent_7_Bucket_1: 2788
Non-critical_ROB_Stalls_Percent_7_Bucket_1: 697408
Critical_ROB_Stalls_Percent_7_Bucket_2: 14
Non-critical_ROB_Stalls_Percent_7_Bucket_2: 208652
Critical_ROB_Stalls_Percent_7_Bucket_3: 9
Non-critical_ROB_Stalls_Percent_7_Bucket_3: 45841
Critical_ROB_Stalls_Percent_7_Bucket_4: 1
Non-critical_ROB_Stalls_Percent_7_Bucket_4: 11582
Critical_ROB_Stalls_Percent_7_Bucket_5: 0
Non-critical_ROB_Stalls_Percent_7_Bucket_5: 5466
Critical_ROB_Stalls_Percent_7_Bucket_6: 0
Non-critical_ROB_Stalls_Percent_7_Bucket_6: 5282
Critical_ROB_Stalls_Percent_8_Bucket_0: 144057
Non-critical_ROB_Stalls_Percent_8_Bucket_0: 2300135
Critical_ROB_Stalls_Percent_8_Bucket_1: 2788
Non-critical_ROB_Stalls_Percent_8_Bucket_1: 697408
Critical_ROB_Stalls_Percent_8_Bucket_2: 14
Non-critical_ROB_Stalls_Percent_8_Bucket_2: 208652
Critical_ROB_Stalls_Percent_8_Bucket_3: 9
Non-critical_ROB_Stalls_Percent_8_Bucket_3: 45841
Critical_ROB_Stalls_Percent_8_Bucket_4: 1
Non-critical_ROB_Stalls_Percent_8_Bucket_4: 11582
Critical_ROB_Stalls_Percent_8_Bucket_5: 0
Non-critical_ROB_Stalls_Percent_8_Bucket_5: 5466
Critical_ROB_Stalls_Percent_8_Bucket_6: 0
Non-critical_ROB_Stalls_Percent_8_Bucket_6: 5282
Average ROB occupancy Load Stall Begin: 34.6503
Average ROB occupancy Load Stall End: 43.1952
Min ROB occupancy Load Stall Begin: 1
Max ROB occupancy Load Stall Begin: 352
Min ROB occupancy Load Stall End: 1
Max ROB occupancy Load Stall End: 352
Average ROB occupancy Critical Load Stall Begin: -nan
Average ROB occupancy Critical Load Stall End: -nan
Min ROB occupancy Critical Load Stall Begin: 400
Max ROB occupancy Critical Load Stall Begin: 0
Min ROB occupancy Critical Load Stall End: 400
Max ROB occupancy Critical Load Stall End: 0
 ROB Load Stall Begin Bucket Count 0: 2695709
 ROB Load Stall End Bucket Count 0: 2444192
 ROB Critical Load Stall Begin Bucket Count 0: 0
 ROB Critical Load Stall End Bucket Count 0: 0
 ROB Load Stall Begin Bucket Count 1: 523247
 ROB Load Stall End Bucket Count 1: 700196
 ROB Critical Load Stall Begin Bucket Count 1: 0
 ROB Critical Load Stall End Bucket Count 1: 0
 ROB Load Stall Begin Bucket Count 2: 148154
 ROB Load Stall End Bucket Count 2: 208666
 ROB Critical Load Stall Begin Bucket Count 2: 0
 ROB Critical Load Stall End Bucket Count 2: 0
 ROB Load Stall Begin Bucket Count 3: 35395
 ROB Load Stall End Bucket Count 3: 45850
 ROB Critical Load Stall Begin Bucket Count 3: 0
 ROB Critical Load Stall End Bucket Count 3: 0
 ROB Load Stall Begin Bucket Count 4: 9403
 ROB Load Stall End Bucket Count 4: 11583
 ROB Critical Load Stall Begin Bucket Count 4: 0
 ROB Critical Load Stall End Bucket Count 4: 0
 ROB Load Stall Begin Bucket Count 5: 4981
 ROB Load Stall End Bucket Count 5: 5466
 ROB Critical Load Stall Begin Bucket Count 5: 0
 ROB Critical Load Stall End Bucket Count 5: 0
 ROB Load Stall Begin Bucket Count 6: 4346
 ROB Load Stall End Bucket Count 6: 5282
 ROB Critical Load Stall Begin Bucket Count 6: 0
 ROB Critical Load Stall End Bucket Count 6: 0
PIST Tag Read Accesses: 0
PIST Read Accesses: 0
PIST Tag Write Accesses: 0
PIST Write Accesses: 0
Criticality detector called times: 0
Max global_stall_cycles_count: 0
Threshold Modified: 0 times, factor: 0
ITLB TOTAL     ACCESS:   10494435  HIT:    9758142  MISS:     736293  HIT %:     92.984  MISS %:    7.01603   MPKI: 14.7259
ITLB LOAD TRANSLATION ACCESS:    8340383  HIT:    8290049  MISS:      50334  HIT %:    99.3965  MISS %:   0.603497   MPKI: 1.00668
ITLB TRANSLATION FROM L1D PREFETCHER ACCESS:    2154052  HIT:    1468093  MISS:     685959  HIT %:    68.1549  MISS %:    31.8451   MPKI: 13.7192
ITLB PREFETCH  REQUESTED:          0  ISSUED:          0  USEFUL:     556906  USELESS:     129054
ITLB USEFUL LOAD PREFETCHES:     556906 PREFETCH ISSUED TO LOWER LEVEL:          0  ACCURACY: inf
ITLB TIMELY PREFETCHES:     556906 LATE PREFETCHES: 74 DROPPED PREFETCHES: 5126
ITLB PREFETCHES SAME FILL-ORIGIN LEVEL: 0 DIFFERENT FILL-ORIGIN LEVEL: 0
ITLB AVERAGE MISS LATENCY: 3886.3 cycles
ITLB RQ	ACCESS:   15889859	FORWARD:          0	MERGED:    5352061	TO_CACHE:   10537798

DTLB TOTAL     ACCESS:   11222435  HIT:   10697099  MISS:     525336  HIT %:    95.3189  MISS %:    4.68112   MPKI: 10.5067
DTLB LOAD TRANSLATION ACCESS:   11222435  HIT:   10697099  MISS:     525336  HIT %:    95.3189  MISS %:    4.68112   MPKI: 10.5067
DTLB PREFETCH  REQUESTED:          0  ISSUED:          0  USEFUL:          0  USELESS:          0
DTLB USEFUL LOAD PREFETCHES:          0 PREFETCH ISSUED TO LOWER LEVEL:          0  ACCURACY: -nan
DTLB TIMELY PREFETCHES:          0 LATE PREFETCHES: 0 DROPPED PREFETCHES: 0
DTLB PREFETCHES SAME FILL-ORIGIN LEVEL: 0 DIFFERENT FILL-ORIGIN LEVEL: 0
DTLB AVERAGE MISS LATENCY: 9.35399 cycles
DTLB RQ	ACCESS:   14750122	FORWARD:          0	MERGED:    3499070	TO_CACHE:   11251052

STLB TOTAL     ACCESS:    1266353  HIT:    1257115  MISS:       9238  HIT %:    99.2705  MISS %:   0.729496   MPKI: 0.18476
STLB LOAD TRANSLATION ACCESS:     575596  HIT:     570540  MISS:       5056  HIT %:    99.1216  MISS %:   0.878394   MPKI: 0.10112
STLB TRANSLATION FROM L1D PREFETCHER ACCESS:     690757  HIT:     686575  MISS:       4182  HIT %:    99.3946  MISS %:   0.605423   MPKI: 0.08364
STLB PREFETCH  REQUESTED:          0  ISSUED:          0  USEFUL:       2802  USELESS:       1384
STLB USEFUL LOAD PREFETCHES:       2802 PREFETCH ISSUED TO LOWER LEVEL:          0  ACCURACY: inf
STLB TIMELY PREFETCHES:       2802 LATE PREFETCHES: 0 DROPPED PREFETCHES: 5126
STLB PREFETCHES SAME FILL-ORIGIN LEVEL: 0 DIFFERENT FILL-ORIGIN LEVEL: 0
STLB AVERAGE MISS LATENCY: 28.7766 cycles
STLB RQ	ACCESS:    1272682	FORWARD:          0	MERGED:       1203	TO_CACHE:    1271479

STLB Hit, L1D data hit: 0
STLB Hit, L2C data hit: 0
STLB Hit, LLC data hit: 0
STLB Hit, LLC data miss: 0
STLB STLB hints to L2: 0
L1D TOTAL     ACCESS:   14230517  HIT:   12766799  MISS:    1463718  HIT %:    89.7142  MISS %:    10.2858   MPKI: 29.2744
L1D LOAD      ACCESS:    7959153  HIT:    6807308  MISS:    1151845  HIT %:     85.528  MISS %:     14.472   MPKI: 23.0369
L1D RFO       ACCESS:    6265818  HIT:    5956546  MISS:     309272  HIT %:    95.0641  MISS %:    4.93586   MPKI: 6.18544
L1D PREFETCH  ACCESS:       5546  HIT:       2945  MISS:       2601  HIT %:    53.1013  MISS %:    46.8987   MPKI: 0.05202
L1D PREFETCH  REQUESTED:      11868  ISSUED:      11868  USEFUL:        991  USELESS:       1611
L1D USEFUL LOAD PREFETCHES:        991 PREFETCH ISSUED TO LOWER LEVEL:       2821  ACCURACY: 35.1294
L1D TIMELY PREFETCHES:        991 LATE PREFETCHES: 220 DROPPED PREFETCHES: 0
L1D PREFETCHES SAME FILL-ORIGIN LEVEL: 2821 DIFFERENT FILL-ORIGIN LEVEL: 0
L1D AVERAGE MISS LATENCY: 8716.15 cycles
L1D RQ	ACCESS:   11306783	FORWARD:          0	MERGED:    3162665	TO_CACHE:    7995843
L1D WQ	ACCESS:    6823740	FORWARD:     148289	MERGED:      69461	TO_CACHE:    6754279
L1D PQ	ACCESS:       5941	FORWARD:          0	MERGED:          0	TO_CACHE:       5927

L1D UNIQUE REGIONS ACCESSED: 0
L1D REGIONS CONFLICTS: 0
L1D Cross Page Prefetch Requests: 0
L1D Same Page Prefetch Requests: 9369
L1D ROI Sum of L1D PQ occupancy: 76845
L1D PREFETCHES PUSHED FROM L2C: 0
L1I TOTAL     ACCESS:   15804516  HIT:   11510363  MISS:    4294153  HIT %:    72.8296  MISS %:    27.1704   MPKI: 85.8831
L1I LOAD      ACCESS:    9808082  HIT:    9711295  MISS:      96787  HIT %:    99.0132  MISS %:   0.986809   MPKI: 1.93574
L1I PREFETCH  ACCESS:    5996434  HIT:    1799068  MISS:    4197366  HIT %:    30.0023  MISS %:    69.9977   MPKI: 83.9473
L1I PREFETCH  REQUESTED:    6192195  ISSUED:    6185721  USEFUL:    2974591  USELESS:    1222792
L1I USEFUL LOAD PREFETCHES:    2974591 PREFETCH ISSUED TO LOWER LEVEL:    4210187  ACCURACY: 70.6522
L1I TIMELY PREFETCHES:    2974591 LATE PREFETCHES: 12821 DROPPED PREFETCHES: 11618
L1I PREFETCHES SAME FILL-ORIGIN LEVEL: 4210187 DIFFERENT FILL-ORIGIN LEVEL: 0
L1I AVERAGE MISS LATENCY: 169904 cycles
L1I RQ	ACCESS:   13561401	FORWARD:          0	MERGED:    3742315	TO_CACHE:    9819086
L1I PQ	ACCESS:    6185721	FORWARD:          0	MERGED:     114948	TO_CACHE:    6070773

BTB TOTAL     ACCESS:    6033516  HIT:    4123215  MISS:    1910301  HIT %:    68.3385  MISS %:    31.6615   MPKI: 38.206
BTB BRANCH_DIRECT_JUMP	ACCESS:     490939  HIT:     331427  MISS:     159512
BTB BRANCH_INDIRECT	ACCESS:     175853  HIT:     140870  MISS:      34983
BTB BRANCH_CONDITIONAL	ACCESS:    2983032  HIT:    2460633  MISS:     522399
BTB BRANCH_DIRECT_CALL	ACCESS:    1002064  HIT:     623208  MISS:     378856
BTB BRANCH_INDIRECT_CALL	ACCESS:     189782  HIT:     117779  MISS:      72003
BTB BRANCH_RETURN	ACCESS:    1191846  HIT:     449298  MISS:     742548
BTB BRANCH_OTHER ACCESS:          0  HIT:          0  MISS:          0

L2C TOTAL     ACCESS:    6368272  HIT:    5894745  MISS:     473527  HIT %:    92.5643  MISS %:    7.43572   MPKI: 9.47054
L2C LOAD      ACCESS:    1235475  HIT:    1088787  MISS:     146688  HIT %:     88.127  MISS %:     11.873   MPKI: 2.93376
L2C DATA LOAD MPKI: 2.67516
L2C INSTRUCTION LOAD MPKI: 0.2586
L2C RFO       ACCESS:     309272  HIT:     280745  MISS:      28527  HIT %:    90.7761  MISS %:    9.22392   MPKI: 0.57054
L2C PREFETCH  ACCESS:    4213008  HIT:    3929909  MISS:     283099  HIT %:    93.2804  MISS %:    6.71964   MPKI: 5.66198
L2C DATA PREFETCH MPKI: 0.03176
L2C INSTRUCTION PREFETCH MPKI: 5.63022
L2C WRITEBACK ACCESS:     595751  HIT:     582755  MISS:      12996  HIT %:    97.8186  MISS %:    2.18145   MPKI: 0.25992
L2C LOAD TRANSLATION ACCESS:       5252  HIT:       3584  MISS:       1668  HIT %:    68.2407  MISS %:    31.7593   MPKI: 0.03336
L2C TRANSLATION FROM L1D PREFETCHER ACCESS:       9514  HIT:       8965  MISS:        549  HIT %:    94.2296  MISS %:    5.77044   MPKI: 0.01098
L2C PREFETCH  REQUESTED:          0  ISSUED:          0  USEFUL:       2885  USELESS:     280964
L2C USEFUL LOAD PREFETCHES:       2885 PREFETCH ISSUED TO LOWER LEVEL:     283099  ACCURACY: 1.01908
L2C TIMELY PREFETCHES:       2885 LATE PREFETCHES: 0 DROPPED PREFETCHES: 0
L2C PREFETCHES SAME FILL-ORIGIN LEVEL: 0 DIFFERENT FILL-ORIGIN LEVEL: 0
L2C AVERAGE MISS LATENCY: 31.6973 cycles
L2C RQ	ACCESS:    1559629	FORWARD:          0	MERGED:          0	TO_CACHE:    1559513
L2C WQ	ACCESS:     595751	FORWARD:        116	MERGED:          0	TO_CACHE:     595751
L2C PQ	ACCESS:    4213008	FORWARD:          0	MERGED:          0	TO_CACHE:    4213008

L2C Instructions Evicting Data 105964
L2C Translations Evicting Data 1198
L2C Data Evicting Data 65391
L2C Instructions Evicting Instructions 187459
L2C Translations Evicting Instructions 966
L2C Data Evicting Instructions 97352
L2C Instructions Evicting Translations 1018
L2C Translations Evicting Translations 53
L2C Data Evicting Translations 1130
L2C Dense regions hint from L2: 0
PSCL5 TOTAL     ACCESS:      14364  HIT:      14364  MISS:          0  HIT %:        100  MISS %:          0   MPKI: 0
PSCL5 LOAD TRANSLATION ACCESS:       5056  HIT:       5056  MISS:          0  HIT %:        100  MISS %:          0   MPKI: 0
PSCL5 TRANSLATION FROM L1D PREFETCHER ACCESS:       9308  HIT:       9308  MISS:          0  HIT %:        100  MISS %:          0   MPKI: 0
PSCL5 PREFETCH  REQUESTED:          0  ISSUED:          0  USEFUL:          0  USELESS:          0
PSCL5 USEFUL LOAD PREFETCHES:          0 PREFETCH ISSUED TO LOWER LEVEL:          0  ACCURACY: -nan
PSCL5 TIMELY PREFETCHES:          0 LATE PREFETCHES: 0 DROPPED PREFETCHES: 0
PSCL5 PREFETCHES SAME FILL-ORIGIN LEVEL: 0 DIFFERENT FILL-ORIGIN LEVEL: 0

PSCL4 TOTAL     ACCESS:      11665  HIT:      11656  MISS:          9  HIT %:    99.9228  MISS %:  0.0771539   MPKI: 0.00018
PSCL4 LOAD TRANSLATION ACCESS:       3923  HIT:       3914  MISS:          9  HIT %:    99.7706  MISS %:   0.229416   MPKI: 0.00018
PSCL4 TRANSLATION FROM L1D PREFETCHER ACCESS:       7742  HIT:       7742  MISS:          0  HIT %:        100  MISS %:          0   MPKI: 0
PSCL4 PREFETCH  REQUESTED:          0  ISSUED:          0  USEFUL:          0  USELESS:          0
PSCL4 USEFUL LOAD PREFETCHES:          0 PREFETCH ISSUED TO LOWER LEVEL:          0  ACCURACY: -nan
PSCL4 TIMELY PREFETCHES:          0 LATE PREFETCHES: 0 DROPPED PREFETCHES: 0
PSCL4 PREFETCHES SAME FILL-ORIGIN LEVEL: 0 DIFFERENT FILL-ORIGIN LEVEL: 0

PSCL3 TOTAL     ACCESS:      13894  HIT:      13875  MISS:         19  HIT %:    99.8633  MISS %:    0.13675   MPKI: 0.00038
PSCL3 LOAD TRANSLATION ACCESS:       4870  HIT:       4851  MISS:         19  HIT %:    99.6099  MISS %:   0.390144   MPKI: 0.00038
PSCL3 TRANSLATION FROM L1D PREFETCHER ACCESS:       9024  HIT:       9024  MISS:          0  HIT %:        100  MISS %:          0   MPKI: 0
PSCL3 PREFETCH  REQUESTED:          0  ISSUED:          0  USEFUL:          0  USELESS:          0
PSCL3 USEFUL LOAD PREFETCHES:          0 PREFETCH ISSUED TO LOWER LEVEL:          0  ACCURACY: -nan
PSCL3 TIMELY PREFETCHES:          0 LATE PREFETCHES: 0 DROPPED PREFETCHES: 0
PSCL3 PREFETCHES SAME FILL-ORIGIN LEVEL: 0 DIFFERENT FILL-ORIGIN LEVEL: 0

PSCL2 TOTAL     ACCESS:      14274  HIT:      14012  MISS:        262  HIT %:    98.1645  MISS %:    1.83551   MPKI: 0.00524
PSCL2 LOAD TRANSLATION ACCESS:       5139  HIT:       4877  MISS:        262  HIT %:    94.9017  MISS %:    5.09827   MPKI: 0.00524
PSCL2 TRANSLATION FROM L1D PREFETCHER ACCESS:       9135  HIT:       9135  MISS:          0  HIT %:        100  MISS %:          0   MPKI: 0
PSCL2 PREFETCH  REQUESTED:          0  ISSUED:          0  USEFUL:          0  USELESS:          0
PSCL2 USEFUL LOAD PREFETCHES:          0 PREFETCH ISSUED TO LOWER LEVEL:          0  ACCURACY: -nan
PSCL2 TIMELY PREFETCHES:          0 LATE PREFETCHES: 0 DROPPED PREFETCHES: 0
PSCL2 PREFETCHES SAME FILL-ORIGIN LEVEL: 0 DIFFERENT FILL-ORIGIN LEVEL: 0

LLC TOTAL     ACCESS:     502945  HIT:     494043  MISS:       8902  HIT %:      98.23  MISS %:    1.76997   MPKI: 0.17804
LLC LOAD      ACCESS:     146688  HIT:     140230  MISS:       6458  HIT %:    95.5975  MISS %:    4.40254   MPKI: 0.12916
LLC RFO       ACCESS:      28527  HIT:      26752  MISS:       1775  HIT %:    93.7778  MISS %:    6.22218   MPKI: 0.0355
LLC PREFETCH  ACCESS:     283099  HIT:     282517  MISS:        582  HIT %:    99.7944  MISS %:   0.205582   MPKI: 0.01164
LLC WRITEBACK ACCESS:      42414  HIT:      42351  MISS:         63  HIT %:    99.8515  MISS %:   0.148536   MPKI: 0.00126
LLC LOAD TRANSLATION ACCESS:       1668  HIT:       1648  MISS:         20  HIT %:     98.801  MISS %:    1.19904   MPKI: 0.0004
LLC TRANSLATION FROM L1D PREFETCHER ACCESS:        549  HIT:        545  MISS:          4  HIT %:    99.2714  MISS %:   0.728597   MPKI: 8e-05
LLC PREFETCH  REQUESTED:          0  ISSUED:          0  USEFUL:         88  USELESS:        269
LLC USEFUL LOAD PREFETCHES:         88 PREFETCH ISSUED TO LOWER LEVEL:        582  ACCURACY: 15.1203
LLC TIMELY PREFETCHES:         88 LATE PREFETCHES: 0 DROPPED PREFETCHES: 0
LLC PREFETCHES SAME FILL-ORIGIN LEVEL: 0 DIFFERENT FILL-ORIGIN LEVEL: 0
LLC AVERAGE MISS LATENCY: 133.68 cycles
LLC RQ	ACCESS:     177432	FORWARD:          0	MERGED:          0	TO_CACHE:     177432
LLC WQ	ACCESS:      42414	FORWARD:          0	MERGED:          0	TO_CACHE:      42414
LLC PQ	ACCESS:     283099	FORWARD:          0	MERGED:          0	TO_CACHE:     283099

LLC Dense regions hint to LLC: 0

RAW hits: 1082988
Loads Generated: 12389772
Loads sent to L1D: 11306783
Stores Generated: 6823741
Stores sent to L1D: 6823740
Major fault: 0 Minor fault: 2136
Allocated PAGES: 2136
I-Shadow cache 408 bytes
Touched + WorthPF tables 6144 bytes 
MMA filter 174 bytes 
FNL filter 272 bytes 
TOTAL PREFETCHER STORAGE SIZE: 25174 bytes
CPU 0 L1I next line prefetcher final stats

stream: 
stream:times selected: 10045
stream:pref_filled: 2780
stream:pref_useful: 728
stream:pref_late: 597
stream:misses: 85
stream:misses_by_poll: 0

CS: 
CS:times selected: 1179
CS:pref_filled: 766
CS:pref_useful: 486
CS:pref_late: 90
CS:misses: 122
CS:misses_by_poll: 0

CPLX: 
CPLX:times selected: 8033
CPLX:pref_filled: 610
CPLX:pref_useful: 183
CPLX:pref_late: 16
CPLX:misses: 573
CPLX:misses_by_poll: 0

NL_L1: 
NL:times selected: 46
NL:pref_filled: 7
NL:pref_useful: 2
NL:pref_late: 0
NL:misses: 1
NL:misses_by_poll: 0

total selections: 19303
total_filled: 2601
total_useful: 991
total_late: 724
total_polluted: 0
total_misses_after_warmup: 25006
conflicts: 110012
Degree Incremented Times: 0
Degree Decremented Times: 3163

L1 IP Table Write Accesses: 130248
L1 IP Table Read Accesses: 20236
L1 RST Write Accesses: 6799
L1 RST Read Accesses: 13598
L1 CSPT Write Accesses: 6799
L1 CSPT Read Accesses: 12290
L1 RR Filter Tag Write Accesses: 5941
L1 RR Filter Tag Read Accesses: 369458
L1 IP Table Tag Write Accesses: 244406
L1 IP Table Tag Read Accesses: 244406
L1 RST Tag Write Accesses: 0
L1 RST Tag Read Accesses: 50394
L1 RR Filter Write Accesses: 0
L1 RR Filter Read Accesses: 12429
test: 2370

DRAM Statistics
 CHANNEL 0
 RQ ROW_BUFFER_HIT:       3448  ROW_BUFFER_MISS:       5390
 DBUS_CONGESTED:          0
 WQ ROW_BUFFER_HIT:         79  ROW_BUFFER_MISS:        884  FULL:          0

 AVG_CONGESTED_CYCLE: -
 All warmup complete: 2
Channel 0 Bank busy for read cycles: 0
Channel 0 Bank busy for write cycles: 0
Channel 0
Rank 0
0banks busy for read cycles: 78920276
0banks busy for write cycles: 581
1banks busy for read cycles: 698919
1banks busy for write cycles: 124761
2banks busy for read cycles: 46576
2banks busy for write cycles: 38297
3banks busy for read cycles: 20652
3banks busy for write cycles: 16895
4banks busy for read cycles: 5149
4banks busy for write cycles: 9145
5banks busy for read cycles: 2785
5banks busy for write cycles: 4198
6banks busy for read cycles: 3085
6banks busy for write cycles: 965
7banks busy for read cycles: 3268
7banks busy for write cycles: 348
8banks busy for read cycles: 6371
8banks busy for write cycles: 271

CPU 0 Branch Prediction Accuracy: 99.8445% MPKI: 0.29148 Average ROB Occupancy at Mispredict: 80.1822
Branch types
NOT_BRANCH: 40627788 81.2556%
BRANCH_DIRECT_JUMP: 490939 0.981878%
BRANCH_INDIRECT: 175853 0.351706%
BRANCH_CONDITIONAL: 6321387 12.6428%
BRANCH_DIRECT_CALL: 1002064 2.00413%
BRANCH_INDIRECT_CALL: 189782 0.379564%
BRANCH_RETURN: 1191846 2.38369%
BRANCH_OTHER: 0 0%

DRAM PAGES: 1048576
Allocated PAGES: 2136
