
*** ChampSim Multicore Out-of-Order Simulator ***

Warmup Instructions: 50000000
Simulation Instructions: 50000000
Number of CPUs: 1
LLC sets: 2048
LLC ways: 16
Off-chip DRAM Size: 4096 MB Channels: 1 Width: 64-bit Data Rate: 6400 MT/s
CPU 0 runs ../IPC-traces//server_030.champsimtrace.xz
.xz
BTB has LRU replacement policy
ITLB has LRU replacement policy
DTLB has LRU replacement policy
STLB has LRU replacement policy
CPU 0 L1I next line prefetcher
L1I has LRU replacement policy
IP Table Entries: 64
L1D has LRU replacement policy
Initialize SRRIP state for L2C
Initialize DRRIP state for LLC
Heartbeat CPU 0 instructions: 10000003 cycles: 2887074 heartbeat IPC: 3.46372 cumulative IPC: 3.46372 (Simulation time: 0 hr 2 min 21 sec) 
Heartbeat CPU 0 instructions: 20000003 cycles: 5769880 heartbeat IPC: 3.46884 cumulative IPC: 3.46628 (Simulation time: 0 hr 4 min 44 sec) 
Heartbeat CPU 0 instructions: 30000003 cycles: 8653087 heartbeat IPC: 3.46836 cumulative IPC: 3.46697 (Simulation time: 0 hr 7 min 3 sec) 
Heartbeat CPU 0 instructions: 40000001 cycles: 11536468 heartbeat IPC: 3.46815 cumulative IPC: 3.46727 (Simulation time: 0 hr 9 min 23 sec) 
Heartbeat CPU 0 instructions: 50000002 cycles: 14420523 heartbeat IPC: 3.46734 cumulative IPC: 3.46728 (Simulation time: 0 hr 11 min 38 sec) 

Warmup complete CPU 0 instructions: 50000002 cycles: 14420523 (Simulation time: 0 hr 11 min 38 sec) 

Heartbeat CPU 0 instructions: 60000000 cycles: 30387670 heartbeat IPC: 0.626286 cumulative IPC: 0.626286 (Simulation time: 0 hr 14 min 17 sec) 
Heartbeat CPU 0 instructions: 70000002 cycles: 46368353 heartbeat IPC: 0.625756 cumulative IPC: 0.626021 (Simulation time: 0 hr 16 min 55 sec) 
Heartbeat CPU 0 instructions: 80000001 cycles: 62218711 heartbeat IPC: 0.630901 cumulative IPC: 0.627639 (Simulation time: 0 hr 19 min 29 sec) 
*** Reached end of trace for Core: 0 Repeating trace: ../IPC-traces//server_030.champsimtrace.xz
Heartbeat CPU 0 instructions: 90000002 cycles: 78113115 heartbeat IPC: 0.629152 cumulative IPC: 0.628017 (Simulation time: 0 hr 22 min 6 sec) 
Heartbeat CPU 0 instructions: 100000000 cycles: 93872325 heartbeat IPC: 0.634549 cumulative IPC: 0.629312 (Simulation time: 0 hr 25 min 1 sec) 
Finished CPU 0 instructions: 50000002 cycles: 79451803 cumulative IPC: 0.629312 (Simulation time: 0 hr 25 min 1 sec) 

ChampSim completed all CPUs

Region of Interest Statistics

CPU 0 cumulative IPC: 0.629312 instructions: 50000002 cycles: 79451803

CPU 0 Average Load ROB stall cycles: 1.93069e+07
CPU 0 Fraction of times ROB stalled by Loads: 35.6298
CPU 0 Percentage of Load stall cycles in Total stall cycles: 2.76893e+08
Issued all: 28203641
Issued LT all: 22299647
rob_not_full_when_issued_lt_all: 22254711
Issued LT one: 17386859
rob_not_full_when_issued_lt_one: 17348813
FVP critical_dynamic_instances_0: 1576427
FVP unique_critical_ips_0: 4488
 Total stall cycles: 66895410
 Total load stall cycles: 185228916758359
Unique Load IPs: 12305
CPU 0 NUM of IPS identified critical: 0
CPU 0 Num of Load IPs stalling ROB: 0
Threshold modification factor: 0
Trouble in retire width: -nan
MaC = Marked as critical.
lt_50_percent_before_Mac: 0
gt_90_percent_before_Mac: 0
gt_75_percent_before_Mac: 0
gt_50_percent_before_Mac: 0
stall_proportion_bin_same_before_after: 0
stall_proportion_bin_lower_before_after: 0
stall_proportion_bin_upper_before_after: 0
average_stall_proportion_before: -nan
average_stall_proportion_after: -nan
Critical IP stalls, total frequency: 0
Non-critical IP stalls, total frequency: 0
Total Freq all stalling IPs: 0
Critical_IP_Detector_Accuracy_70: 0.000222816
Critical_IP_Detector_Accuracy_80: 0.000222816
Critical_IP_Detector_Accuracy_90: 0.000222816
Critical_IP_Detector_Coverage_70: 1
Critical_IP_Detector_Coverage_80: 1
Critical_IP_Detector_Coverage_90: 1
stat_90_percent_critical_ip_stalls_freq: 154158
stat_90_percent_non_critical_ip_stalls_freq: 18446744073709397458
AVERAGE_ROB_Occupancy_90_Percent_Critical_IP_Stalls: 27.359
AVERAGE_ROB_Occupancy_90_Percent_Non_Critical_IP_Stalls: 7.66943e-12
Critical_IP_ROB_Stalls_Bucket_0: 0
Non-critical_IP_ROB_Stalls_Bucket_0: 2450005
Critical_IP_ROB_Stalls_Bucket_1: 0
Non-critical_IP_ROB_Stalls_Bucket_1: 697651
Critical_IP_ROB_Stalls_Bucket_2: 0
Non-critical_IP_ROB_Stalls_Bucket_2: 205560
Critical_IP_ROB_Stalls_Bucket_3: 0
Non-critical_IP_ROB_Stalls_Bucket_3: 43234
Critical_IP_ROB_Stalls_Bucket_4: 0
Non-critical_IP_ROB_Stalls_Bucket_4: 11116
Critical_IP_ROB_Stalls_Bucket_5: 0
Non-critical_IP_ROB_Stalls_Bucket_5: 5073
Critical_IP_ROB_Stalls_Bucket_6: 0
Non-critical_IP_ROB_Stalls_Bucket_6: 5652
0 => IPs accounting for >50 percent of stalls, 1 => 55, 2 => 60, 3 => 65 and so on till 90.
percent50: inf num IPs:  1
percent55: inf num IPs: 1
percent60: inf num IPs: 1
percent65: inf num IPs: 1
percent70: inf num IPs: 1
percent75: inf num IPs: 1
percent80: inf num IPs: 1
percent85: inf num IPs: 1
percent90: inf num IPs: 1
Critical_ROB_Stalls_Percent_0_Bucket_0: 152608
Non-critical_ROB_Stalls_Percent_0_Bucket_0: 2297397
Critical_ROB_Stalls_Percent_0_Bucket_1: 1528
Non-critical_ROB_Stalls_Percent_0_Bucket_1: 696123
Critical_ROB_Stalls_Percent_0_Bucket_2: 9
Non-critical_ROB_Stalls_Percent_0_Bucket_2: 205551
Critical_ROB_Stalls_Percent_0_Bucket_3: 12
Non-critical_ROB_Stalls_Percent_0_Bucket_3: 43222
Critical_ROB_Stalls_Percent_0_Bucket_4: 1
Non-critical_ROB_Stalls_Percent_0_Bucket_4: 11115
Critical_ROB_Stalls_Percent_0_Bucket_5: 0
Non-critical_ROB_Stalls_Percent_0_Bucket_5: 5073
Critical_ROB_Stalls_Percent_0_Bucket_6: 0
Non-critical_ROB_Stalls_Percent_0_Bucket_6: 5652
Critical_ROB_Stalls_Percent_1_Bucket_0: 152608
Non-critical_ROB_Stalls_Percent_1_Bucket_0: 2297397
Critical_ROB_Stalls_Percent_1_Bucket_1: 1528
Non-critical_ROB_Stalls_Percent_1_Bucket_1: 696123
Critical_ROB_Stalls_Percent_1_Bucket_2: 9
Non-critical_ROB_Stalls_Percent_1_Bucket_2: 205551
Critical_ROB_Stalls_Percent_1_Bucket_3: 12
Non-critical_ROB_Stalls_Percent_1_Bucket_3: 43222
Critical_ROB_Stalls_Percent_1_Bucket_4: 1
Non-critical_ROB_Stalls_Percent_1_Bucket_4: 11115
Critical_ROB_Stalls_Percent_1_Bucket_5: 0
Non-critical_ROB_Stalls_Percent_1_Bucket_5: 5073
Critical_ROB_Stalls_Percent_1_Bucket_6: 0
Non-critical_ROB_Stalls_Percent_1_Bucket_6: 5652
Critical_ROB_Stalls_Percent_2_Bucket_0: 152608
Non-critical_ROB_Stalls_Percent_2_Bucket_0: 2297397
Critical_ROB_Stalls_Percent_2_Bucket_1: 1528
Non-critical_ROB_Stalls_Percent_2_Bucket_1: 696123
Critical_ROB_Stalls_Percent_2_Bucket_2: 9
Non-critical_ROB_Stalls_Percent_2_Bucket_2: 205551
Critical_ROB_Stalls_Percent_2_Bucket_3: 12
Non-critical_ROB_Stalls_Percent_2_Bucket_3: 43222
Critical_ROB_Stalls_Percent_2_Bucket_4: 1
Non-critical_ROB_Stalls_Percent_2_Bucket_4: 11115
Critical_ROB_Stalls_Percent_2_Bucket_5: 0
Non-critical_ROB_Stalls_Percent_2_Bucket_5: 5073
Critical_ROB_Stalls_Percent_2_Bucket_6: 0
Non-critical_ROB_Stalls_Percent_2_Bucket_6: 5652
Critical_ROB_Stalls_Percent_3_Bucket_0: 152608
Non-critical_ROB_Stalls_Percent_3_Bucket_0: 2297397
Critical_ROB_Stalls_Percent_3_Bucket_1: 1528
Non-critical_ROB_Stalls_Percent_3_Bucket_1: 696123
Critical_ROB_Stalls_Percent_3_Bucket_2: 9
Non-critical_ROB_Stalls_Percent_3_Bucket_2: 205551
Critical_ROB_Stalls_Percent_3_Bucket_3: 12
Non-critical_ROB_Stalls_Percent_3_Bucket_3: 43222
Critical_ROB_Stalls_Percent_3_Bucket_4: 1
Non-critical_ROB_Stalls_Percent_3_Bucket_4: 11115
Critical_ROB_Stalls_Percent_3_Bucket_5: 0
Non-critical_ROB_Stalls_Percent_3_Bucket_5: 5073
Critical_ROB_Stalls_Percent_3_Bucket_6: 0
Non-critical_ROB_Stalls_Percent_3_Bucket_6: 5652
Critical_ROB_Stalls_Percent_4_Bucket_0: 152608
Non-critical_ROB_Stalls_Percent_4_Bucket_0: 2297397
Critical_ROB_Stalls_Percent_4_Bucket_1: 1528
Non-critical_ROB_Stalls_Percent_4_Bucket_1: 696123
Critical_ROB_Stalls_Percent_4_Bucket_2: 9
Non-critical_ROB_Stalls_Percent_4_Bucket_2: 205551
Critical_ROB_Stalls_Percent_4_Bucket_3: 12
Non-critical_ROB_Stalls_Percent_4_Bucket_3: 43222
Critical_ROB_Stalls_Percent_4_Bucket_4: 1
Non-critical_ROB_Stalls_Percent_4_Bucket_4: 11115
Critical_ROB_Stalls_Percent_4_Bucket_5: 0
Non-critical_ROB_Stalls_Percent_4_Bucket_5: 5073
Critical_ROB_Stalls_Percent_4_Bucket_6: 0
Non-critical_ROB_Stalls_Percent_4_Bucket_6: 5652
Critical_ROB_Stalls_Percent_5_Bucket_0: 152608
Non-critical_ROB_Stalls_Percent_5_Bucket_0: 2297397
Critical_ROB_Stalls_Percent_5_Bucket_1: 1528
Non-critical_ROB_Stalls_Percent_5_Bucket_1: 696123
Critical_ROB_Stalls_Percent_5_Bucket_2: 9
Non-critical_ROB_Stalls_Percent_5_Bucket_2: 205551
Critical_ROB_Stalls_Percent_5_Bucket_3: 12
Non-critical_ROB_Stalls_Percent_5_Bucket_3: 43222
Critical_ROB_Stalls_Percent_5_Bucket_4: 1
Non-critical_ROB_Stalls_Percent_5_Bucket_4: 11115
Critical_ROB_Stalls_Percent_5_Bucket_5: 0
Non-critical_ROB_Stalls_Percent_5_Bucket_5: 5073
Critical_ROB_Stalls_Percent_5_Bucket_6: 0
Non-critical_ROB_Stalls_Percent_5_Bucket_6: 5652
Critical_ROB_Stalls_Percent_6_Bucket_0: 152608
Non-critical_ROB_Stalls_Percent_6_Bucket_0: 2297397
Critical_ROB_Stalls_Percent_6_Bucket_1: 1528
Non-critical_ROB_Stalls_Percent_6_Bucket_1: 696123
Critical_ROB_Stalls_Percent_6_Bucket_2: 9
Non-critical_ROB_Stalls_Percent_6_Bucket_2: 205551
Critical_ROB_Stalls_Percent_6_Bucket_3: 12
Non-critical_ROB_Stalls_Percent_6_Bucket_3: 43222
Critical_ROB_Stalls_Percent_6_Bucket_4: 1
Non-critical_ROB_Stalls_Percent_6_Bucket_4: 11115
Critical_ROB_Stalls_Percent_6_Bucket_5: 0
Non-critical_ROB_Stalls_Percent_6_Bucket_5: 5073
Critical_ROB_Stalls_Percent_6_Bucket_6: 0
Non-critical_ROB_Stalls_Percent_6_Bucket_6: 5652
Critical_ROB_Stalls_Percent_7_Bucket_0: 152608
Non-critical_ROB_Stalls_Percent_7_Bucket_0: 2297397
Critical_ROB_Stalls_Percent_7_Bucket_1: 1528
Non-critical_ROB_Stalls_Percent_7_Bucket_1: 696123
Critical_ROB_Stalls_Percent_7_Bucket_2: 9
Non-critical_ROB_Stalls_Percent_7_Bucket_2: 205551
Critical_ROB_Stalls_Percent_7_Bucket_3: 12
Non-critical_ROB_Stalls_Percent_7_Bucket_3: 43222
Critical_ROB_Stalls_Percent_7_Bucket_4: 1
Non-critical_ROB_Stalls_Percent_7_Bucket_4: 11115
Critical_ROB_Stalls_Percent_7_Bucket_5: 0
Non-critical_ROB_Stalls_Percent_7_Bucket_5: 5073
Critical_ROB_Stalls_Percent_7_Bucket_6: 0
Non-critical_ROB_Stalls_Percent_7_Bucket_6: 5652
Critical_ROB_Stalls_Percent_8_Bucket_0: 152608
Non-critical_ROB_Stalls_Percent_8_Bucket_0: 2297397
Critical_ROB_Stalls_Percent_8_Bucket_1: 1528
Non-critical_ROB_Stalls_Percent_8_Bucket_1: 696123
Critical_ROB_Stalls_Percent_8_Bucket_2: 9
Non-critical_ROB_Stalls_Percent_8_Bucket_2: 205551
Critical_ROB_Stalls_Percent_8_Bucket_3: 12
Non-critical_ROB_Stalls_Percent_8_Bucket_3: 43222
Critical_ROB_Stalls_Percent_8_Bucket_4: 1
Non-critical_ROB_Stalls_Percent_8_Bucket_4: 11115
Critical_ROB_Stalls_Percent_8_Bucket_5: 0
Non-critical_ROB_Stalls_Percent_8_Bucket_5: 5073
Critical_ROB_Stalls_Percent_8_Bucket_6: 0
Non-critical_ROB_Stalls_Percent_8_Bucket_6: 5652
Average ROB occupancy Load Stall Begin: 34.1922
Average ROB occupancy Load Stall End: 42.6218
Min ROB occupancy Load Stall Begin: 1
Max ROB occupancy Load Stall Begin: 352
Min ROB occupancy Load Stall End: 1
Max ROB occupancy Load Stall End: 352
Average ROB occupancy Critical Load Stall Begin: -nan
Average ROB occupancy Critical Load Stall End: -nan
Min ROB occupancy Critical Load Stall Begin: 400
Max ROB occupancy Critical Load Stall Begin: 0
Min ROB occupancy Critical Load Stall End: 400
Max ROB occupancy Critical Load Stall End: 0
 ROB Load Stall Begin Bucket Count 0: 2701786
 ROB Load Stall End Bucket Count 0: 2450005
 ROB Critical Load Stall Begin Bucket Count 0: 0
 ROB Critical Load Stall End Bucket Count 0: 0
 ROB Load Stall Begin Bucket Count 1: 520620
 ROB Load Stall End Bucket Count 1: 697651
 ROB Critical Load Stall Begin Bucket Count 1: 0
 ROB Critical Load Stall End Bucket Count 1: 0
 ROB Load Stall Begin Bucket Count 2: 144197
 ROB Load Stall End Bucket Count 2: 205560
 ROB Critical Load Stall Begin Bucket Count 2: 0
 ROB Critical Load Stall End Bucket Count 2: 0
 ROB Load Stall Begin Bucket Count 3: 33401
 ROB Load Stall End Bucket Count 3: 43234
 ROB Critical Load Stall Begin Bucket Count 3: 0
 ROB Critical Load Stall End Bucket Count 3: 0
 ROB Load Stall Begin Bucket Count 4: 8907
 ROB Load Stall End Bucket Count 4: 11116
 ROB Critical Load Stall Begin Bucket Count 4: 0
 ROB Critical Load Stall End Bucket Count 4: 0
 ROB Load Stall Begin Bucket Count 5: 4754
 ROB Load Stall End Bucket Count 5: 5073
 ROB Critical Load Stall Begin Bucket Count 5: 0
 ROB Critical Load Stall End Bucket Count 5: 0
 ROB Load Stall Begin Bucket Count 6: 4626
 ROB Load Stall End Bucket Count 6: 5652
 ROB Critical Load Stall Begin Bucket Count 6: 0
 ROB Critical Load Stall End Bucket Count 6: 0
PIST Tag Read Accesses: 0
PIST Read Accesses: 0
PIST Tag Write Accesses: 0
PIST Write Accesses: 0
Criticality detector called times: 0
Max global_stall_cycles_count: 0
Threshold Modified: 0 times, factor: 0
ITLB TOTAL     ACCESS:   10469373  HIT:    9725955  MISS:     743418  HIT %:    92.8991  MISS %:    7.10088   MPKI: 14.8684
ITLB LOAD TRANSLATION ACCESS:    8337153  HIT:    8281013  MISS:      56140  HIT %:    99.3266  MISS %:   0.673371   MPKI: 1.1228
ITLB TRANSLATION FROM L1D PREFETCHER ACCESS:    2132220  HIT:    1444942  MISS:     687278  HIT %:     67.767  MISS %:     32.233   MPKI: 13.7456
ITLB PREFETCH  REQUESTED:          0  ISSUED:          0  USEFUL:     554273  USELESS:     133004
ITLB USEFUL LOAD PREFETCHES:     554273 PREFETCH ISSUED TO LOWER LEVEL:          0  ACCURACY: inf
ITLB TIMELY PREFETCHES:     554273 LATE PREFETCHES: 388 DROPPED PREFETCHES: 5277
ITLB PREFETCHES SAME FILL-ORIGIN LEVEL: 0 DIFFERENT FILL-ORIGIN LEVEL: 0
ITLB AVERAGE MISS LATENCY: 36061.7 cycles
ITLB RQ	ACCESS:   15849805	FORWARD:          0	MERGED:    5333346	TO_CACHE:   10516459

DTLB TOTAL     ACCESS:   11226381  HIT:   10701004  MISS:     525377  HIT %:    95.3202  MISS %:    4.67984   MPKI: 10.5075
DTLB LOAD TRANSLATION ACCESS:   11226381  HIT:   10701004  MISS:     525377  HIT %:    95.3202  MISS %:    4.67984   MPKI: 10.5075
DTLB PREFETCH  REQUESTED:          0  ISSUED:          0  USEFUL:          0  USELESS:          0
DTLB USEFUL LOAD PREFETCHES:          0 PREFETCH ISSUED TO LOWER LEVEL:          0  ACCURACY: -nan
DTLB TIMELY PREFETCHES:          0 LATE PREFETCHES: 0 DROPPED PREFETCHES: 0
DTLB PREFETCHES SAME FILL-ORIGIN LEVEL: 0 DIFFERENT FILL-ORIGIN LEVEL: 0
DTLB AVERAGE MISS LATENCY: 9.36712 cycles
DTLB RQ	ACCESS:   14749915	FORWARD:          0	MERGED:    3495387	TO_CACHE:   11254528

STLB TOTAL     ACCESS:    1561443  HIT:    1552331  MISS:       9112  HIT %:    99.4164  MISS %:   0.583563   MPKI: 0.18224
STLB LOAD TRANSLATION ACCESS:     581129  HIT:     575964  MISS:       5165  HIT %:    99.1112  MISS %:   0.888787   MPKI: 0.1033
STLB TRANSLATION FROM L1D PREFETCHER ACCESS:     980314  HIT:     976367  MISS:       3947  HIT %:    99.5974  MISS %:   0.402626   MPKI: 0.07894
STLB PREFETCH  REQUESTED:          0  ISSUED:          0  USEFUL:       2706  USELESS:       1245
STLB USEFUL LOAD PREFETCHES:       2706 PREFETCH ISSUED TO LOWER LEVEL:          0  ACCURACY: inf
STLB TIMELY PREFETCHES:       2706 LATE PREFETCHES: 0 DROPPED PREFETCHES: 5277
STLB PREFETCHES SAME FILL-ORIGIN LEVEL: 0 DIFFERENT FILL-ORIGIN LEVEL: 0
STLB AVERAGE MISS LATENCY: 29.535 cycles
STLB RQ	ACCESS:    1707579	FORWARD:          0	MERGED:     140859	TO_CACHE:    1566720

STLB Hit, L1D data hit: 0
STLB Hit, L2C data hit: 0
STLB Hit, LLC data hit: 0
STLB Hit, LLC data miss: 0
STLB STLB hints to L2: 0
L1D TOTAL     ACCESS:   14491387  HIT:   12970487  MISS:    1520900  HIT %:    89.5048  MISS %:    10.4952   MPKI: 30.418
L1D LOAD      ACCESS:    7960699  HIT:    6907567  MISS:    1053132  HIT %:    86.7709  MISS %:    13.2291   MPKI: 21.0626
L1D RFO       ACCESS:    6266794  HIT:    5960142  MISS:     306652  HIT %:    95.1067  MISS %:    4.89328   MPKI: 6.13304
L1D PREFETCH  ACCESS:     263894  HIT:     102778  MISS:     161116  HIT %:    38.9467  MISS %:    61.0533   MPKI: 3.22232
L1D PREFETCH  REQUESTED:     867030  ISSUED:     867029  USEFUL:     108731  USELESS:      52364
L1D USEFUL LOAD PREFETCHES:     108731 PREFETCH ISSUED TO LOWER LEVEL:     311070  ACCURACY: 34.9539
L1D TIMELY PREFETCHES:     108731 LATE PREFETCHES: 149876 DROPPED PREFETCHES: 0
L1D PREFETCHES SAME FILL-ORIGIN LEVEL: 311070 DIFFERENT FILL-ORIGIN LEVEL: 0
L1D AVERAGE MISS LATENCY: 5.37598e+06 cycles
L1D RQ	ACCESS:   11308153	FORWARD:          0	MERGED:    3163614	TO_CACHE:    7995826
L1D WQ	ACCESS:    6823740	FORWARD:     148728	MERGED:      69651	TO_CACHE:    6754089
L1D PQ	ACCESS:     433522	FORWARD:          0	MERGED:          0	TO_CACHE:     433507

L1D UNIQUE REGIONS ACCESSED: 0
L1D REGIONS CONFLICTS: 0
L1D Cross Page Prefetch Requests: 0
L1D Same Page Prefetch Requests: 439963
L1D ROI Sum of L1D PQ occupancy: 5579166
L1D PREFETCHES PUSHED FROM L2C: 0
L1I TOTAL     ACCESS:   15762667  HIT:   11439070  MISS:    4323597  HIT %:    72.5707  MISS %:    27.4293   MPKI: 86.4719
L1I LOAD      ACCESS:    9807794  HIT:    9711119  MISS:      96675  HIT %:    99.0143  MISS %:   0.985696   MPKI: 1.9335
L1I PREFETCH  ACCESS:    5954873  HIT:    1727951  MISS:    4226922  HIT %:    29.0174  MISS %:    70.9826   MPKI: 84.5384
L1I PREFETCH  REQUESTED:    6189279  ISSUED:    6169882  USEFUL:    2977214  USELESS:    1249692
L1I USEFUL LOAD PREFETCHES:    2977214 PREFETCH ISSUED TO LOWER LEVEL:    4240848  ACCURACY: 70.2033
L1I TIMELY PREFETCHES:    2977214 LATE PREFETCHES: 13926 DROPPED PREFETCHES: 11763
L1I PREFETCHES SAME FILL-ORIGIN LEVEL: 4240848 DIFFERENT FILL-ORIGIN LEVEL: 0
L1I AVERAGE MISS LATENCY: 167009 cycles
L1I RQ	ACCESS:   13558992	FORWARD:          0	MERGED:    3741026	TO_CACHE:    9817966
L1I PQ	ACCESS:    6169882	FORWARD:          0	MERGED:     138043	TO_CACHE:    6031839

BTB TOTAL     ACCESS:    6033515  HIT:    4123215  MISS:    1910300  HIT %:    68.3385  MISS %:    31.6615   MPKI: 38.206
BTB BRANCH_DIRECT_JUMP	ACCESS:     490939  HIT:     331427  MISS:     159512
BTB BRANCH_INDIRECT	ACCESS:     175853  HIT:     140870  MISS:      34983
BTB BRANCH_CONDITIONAL	ACCESS:    2983031  HIT:    2460633  MISS:     522398
BTB BRANCH_DIRECT_CALL	ACCESS:    1002064  HIT:     623208  MISS:     378856
BTB BRANCH_INDIRECT_CALL	ACCESS:     189782  HIT:     117779  MISS:      72003
BTB BRANCH_RETURN	ACCESS:    1191846  HIT:     449298  MISS:     742548
BTB BRANCH_OTHER ACCESS:          0  HIT:          0  MISS:          0

L2C TOTAL     ACCESS:    6457516  HIT:    5956131  MISS:     501385  HIT %:    92.2356  MISS %:    7.76436   MPKI: 10.0277
L2C LOAD      ACCESS:     985914  HIT:     872879  MISS:     113035  HIT %:     88.535  MISS %:     11.465   MPKI: 2.2607
L2C DATA LOAD MPKI: 1.99782
L2C INSTRUCTION LOAD MPKI: 0.26288
L2C RFO       ACCESS:     306574  HIT:     278021  MISS:      28553  HIT %:    90.6864  MISS %:    9.31358   MPKI: 0.57106
L2C PREFETCH  ACCESS:    4551839  HIT:    4207302  MISS:     344537  HIT %:    92.4308  MISS %:    7.56918   MPKI: 6.89074
L2C DATA PREFETCH MPKI: 1.02978
L2C INSTRUCTION PREFETCH MPKI: 5.86096
L2C WRITEBACK ACCESS:     598407  HIT:     585575  MISS:      12832  HIT %:    97.8556  MISS %:    2.14436   MPKI: 0.25664
L2C LOAD TRANSLATION ACCESS:       5363  HIT:       3533  MISS:       1830  HIT %:    65.8773  MISS %:    34.1227   MPKI: 0.0366
L2C TRANSLATION FROM L1D PREFETCHER ACCESS:       9419  HIT:       8821  MISS:        598  HIT %:    93.6511  MISS %:    6.34887   MPKI: 0.01196
L2C PREFETCH  REQUESTED:          0  ISSUED:          0  USEFUL:       4401  USELESS:     340361
L2C USEFUL LOAD PREFETCHES:       4401 PREFETCH ISSUED TO LOWER LEVEL:     344537  ACCURACY: 1.27737
L2C TIMELY PREFETCHES:       4401 LATE PREFETCHES: 0 DROPPED PREFETCHES: 0
L2C PREFETCHES SAME FILL-ORIGIN LEVEL: 0 DIFFERENT FILL-ORIGIN LEVEL: 0
L2C AVERAGE MISS LATENCY: 32.4303 cycles
L2C RQ	ACCESS:    1307361	FORWARD:          0	MERGED:          0	TO_CACHE:    1307270
L2C WQ	ACCESS:     598407	FORWARD:        170	MERGED:          0	TO_CACHE:     598407
L2C PQ	ACCESS:    4551918	FORWARD:          0	MERGED:          0	TO_CACHE:    4551839

L2C Instructions Evicting Data 113866
L2C Translations Evicting Data 1304
L2C Data Evicting Data 72891
L2C Instructions Evicting Instructions 191241
L2C Translations Evicting Instructions 1073
L2C Data Evicting Instructions 105763
L2C Instructions Evicting Translations 1085
L2C Translations Evicting Translations 51
L2C Data Evicting Translations 1279
L2C Dense regions hint from L2: 0
PSCL5 TOTAL     ACCESS:      14389  HIT:      14389  MISS:          0  HIT %:        100  MISS %:          0   MPKI: 0
PSCL5 LOAD TRANSLATION ACCESS:       5165  HIT:       5165  MISS:          0  HIT %:        100  MISS %:          0   MPKI: 0
PSCL5 TRANSLATION FROM L1D PREFETCHER ACCESS:       9224  HIT:       9224  MISS:          0  HIT %:        100  MISS %:          0   MPKI: 0
PSCL5 PREFETCH  REQUESTED:          0  ISSUED:          0  USEFUL:          0  USELESS:          0
PSCL5 USEFUL LOAD PREFETCHES:          0 PREFETCH ISSUED TO LOWER LEVEL:          0  ACCURACY: -nan
PSCL5 TIMELY PREFETCHES:          0 LATE PREFETCHES: 0 DROPPED PREFETCHES: 0
PSCL5 PREFETCHES SAME FILL-ORIGIN LEVEL: 0 DIFFERENT FILL-ORIGIN LEVEL: 0

PSCL4 TOTAL     ACCESS:       7660  HIT:       7652  MISS:          8  HIT %:    99.8956  MISS %:   0.104439   MPKI: 0.00016
PSCL4 LOAD TRANSLATION ACCESS:       2901  HIT:       2893  MISS:          8  HIT %:    99.7242  MISS %:   0.275767   MPKI: 0.00016
PSCL4 TRANSLATION FROM L1D PREFETCHER ACCESS:       4759  HIT:       4759  MISS:          0  HIT %:        100  MISS %:          0   MPKI: 0
PSCL4 PREFETCH  REQUESTED:          0  ISSUED:          0  USEFUL:          0  USELESS:          0
PSCL4 USEFUL LOAD PREFETCHES:          0 PREFETCH ISSUED TO LOWER LEVEL:          0  ACCURACY: -nan
PSCL4 TIMELY PREFETCHES:          0 LATE PREFETCHES: 0 DROPPED PREFETCHES: 0
PSCL4 PREFETCHES SAME FILL-ORIGIN LEVEL: 0 DIFFERENT FILL-ORIGIN LEVEL: 0

PSCL3 TOTAL     ACCESS:      14056  HIT:      14041  MISS:         15  HIT %:    99.8933  MISS %:   0.106716   MPKI: 0.0003
PSCL3 LOAD TRANSLATION ACCESS:       5031  HIT:       5016  MISS:         15  HIT %:    99.7018  MISS %:   0.298151   MPKI: 0.0003
PSCL3 TRANSLATION FROM L1D PREFETCHER ACCESS:       9025  HIT:       9025  MISS:          0  HIT %:        100  MISS %:          0   MPKI: 0
PSCL3 PREFETCH  REQUESTED:          0  ISSUED:          0  USEFUL:          0  USELESS:          0
PSCL3 USEFUL LOAD PREFETCHES:          0 PREFETCH ISSUED TO LOWER LEVEL:          0  ACCURACY: -nan
PSCL3 TIMELY PREFETCHES:          0 LATE PREFETCHES: 0 DROPPED PREFETCHES: 0
PSCL3 PREFETCHES SAME FILL-ORIGIN LEVEL: 0 DIFFERENT FILL-ORIGIN LEVEL: 0

PSCL2 TOTAL     ACCESS:      14296  HIT:      14031  MISS:        265  HIT %:    98.1463  MISS %:    1.85367   MPKI: 0.0053
PSCL2 LOAD TRANSLATION ACCESS:       5251  HIT:       4986  MISS:        265  HIT %:    94.9533  MISS %:    5.04666   MPKI: 0.0053
PSCL2 TRANSLATION FROM L1D PREFETCHER ACCESS:       9045  HIT:       9045  MISS:          0  HIT %:        100  MISS %:          0   MPKI: 0
PSCL2 PREFETCH  REQUESTED:          0  ISSUED:          0  USEFUL:          0  USELESS:          0
PSCL2 USEFUL LOAD PREFETCHES:          0 PREFETCH ISSUED TO LOWER LEVEL:          0  ACCURACY: -nan
PSCL2 TIMELY PREFETCHES:          0 LATE PREFETCHES: 0 DROPPED PREFETCHES: 0
PSCL2 PREFETCHES SAME FILL-ORIGIN LEVEL: 0 DIFFERENT FILL-ORIGIN LEVEL: 0

LLC TOTAL     ACCESS:     532258  HIT:     520482  MISS:      11776  HIT %:    97.7875  MISS %:    2.21246   MPKI: 0.23552
LLC LOAD      ACCESS:     113035  HIT:     108631  MISS:       4404  HIT %:    96.1039  MISS %:    3.89614   MPKI: 0.08808
LLC RFO       ACCESS:      28553  HIT:      26745  MISS:       1808  HIT %:    93.6679  MISS %:    6.33208   MPKI: 0.03616
LLC PREFETCH  ACCESS:     344537  HIT:     339082  MISS:       5455  HIT %:    98.4167  MISS %:    1.58328   MPKI: 0.1091
LLC WRITEBACK ACCESS:      43705  HIT:      43621  MISS:         84  HIT %:    99.8078  MISS %:   0.192198   MPKI: 0.00168
LLC LOAD TRANSLATION ACCESS:       1830  HIT:       1807  MISS:         23  HIT %:    98.7432  MISS %:    1.25683   MPKI: 0.00046
LLC TRANSLATION FROM L1D PREFETCHER ACCESS:        598  HIT:        596  MISS:          2  HIT %:    99.6656  MISS %:   0.334448   MPKI: 4e-05
LLC PREFETCH  REQUESTED:          0  ISSUED:          0  USEFUL:        218  USELESS:       1116
LLC USEFUL LOAD PREFETCHES:        218 PREFETCH ISSUED TO LOWER LEVEL:       5455  ACCURACY: 3.99633
LLC TIMELY PREFETCHES:        218 LATE PREFETCHES: 0 DROPPED PREFETCHES: 0
LLC PREFETCHES SAME FILL-ORIGIN LEVEL: 0 DIFFERENT FILL-ORIGIN LEVEL: 0
LLC AVERAGE MISS LATENCY: 135.761 cycles
LLC RQ	ACCESS:     144016	FORWARD:          0	MERGED:          0	TO_CACHE:     144016
LLC WQ	ACCESS:      43705	FORWARD:          0	MERGED:          0	TO_CACHE:      43705
LLC PQ	ACCESS:     344537	FORWARD:          0	MERGED:          0	TO_CACHE:     344537

LLC Dense regions hint to LLC: 0

RAW hits: 1081616
Loads Generated: 12389769
Loads sent to L1D: 11308153
Stores Generated: 6823741
Stores sent to L1D: 6823740
Major fault: 0 Minor fault: 2136
Allocated PAGES: 2136
I-Shadow cache 408 bytes
Touched + WorthPF tables 6144 bytes 
MMA filter 174 bytes 
FNL filter 272 bytes 
TOTAL PREFETCHER STORAGE SIZE: 25174 bytes
CPU 0 L1I next line prefetcher final stats

stream: 
stream:times selected: 547709
stream:pref_filled: 47684
stream:pref_useful: 13363
stream:pref_late: 134875
stream:misses: 9075
stream:misses_by_poll: 0

CS: 
CS:times selected: 109620
CS:pref_filled: 91651
CS:pref_useful: 82624
CS:pref_late: 2325
CS:misses: 6173
CS:misses_by_poll: 26

CPLX: 
CPLX:times selected: 437193
CPLX:pref_filled: 25403
CPLX:pref_useful: 13836
CPLX:pref_late: 9660
CPLX:misses: 176804
CPLX:misses_by_poll: 90

NL_L1: 
NL:times selected: 1152
NL:pref_filled: 188
NL:pref_useful: 25
NL:pref_late: 0
NL:misses: 159
NL:misses_by_poll: 0

total selections: 1095674
total_filled: 161116
total_useful: 108731
total_late: 150316
total_polluted: 116
total_misses_after_warmup: 256790
conflicts: 176518
Degree Incremented Times: 4972
Degree Decremented Times: 4982

L1 IP Table Write Accesses: 892731
L1 IP Table Read Accesses: 716213
L1 RST Write Accesses: 544883
L1 RST Read Accesses: 1089766
L1 CSPT Write Accesses: 544883
L1 CSPT Read Accesses: 979922
L1 RR Filter Tag Write Accesses: 433523
L1 RR Filter Tag Read Accesses: 32042670
L1 IP Table Tag Write Accesses: 1109623
L1 IP Table Tag Read Accesses: 1109623
L1 RST Tag Write Accesses: 0
L1 RST Tag Read Accesses: 4951751
L1 RR Filter Write Accesses: 0
L1 RR Filter Read Accesses: 1110753
test: 54058

DRAM Statistics
 CHANNEL 0
 RQ ROW_BUFFER_HIT:       4275  ROW_BUFFER_MISS:       7416
 DBUS_CONGESTED:          9
 WQ ROW_BUFFER_HIT:        123  ROW_BUFFER_MISS:       1300  FULL:          0

 AVG_CONGESTED_CYCLE: 3
 All warmup complete: 2
Channel 0 Bank busy for read cycles: 0
Channel 0 Bank busy for write cycles: 0
Channel 0
Rank 0
0banks busy for read cycles: 78343369
0banks busy for write cycles: 827
1banks busy for read cycles: 689294
1banks busy for write cycles: 133155
2banks busy for read cycles: 124714
2banks busy for write cycles: 32452
3banks busy for read cycles: 59296
3banks busy for write cycles: 13288
4banks busy for read cycles: 22348
4banks busy for write cycles: 6215
5banks busy for read cycles: 4789
5banks busy for write cycles: 4295
6banks busy for read cycles: 3334
6banks busy for write cycles: 2895
7banks busy for read cycles: 3653
7banks busy for write cycles: 1546
8banks busy for read cycles: 6334
8banks busy for write cycles: 0

CPU 0 Branch Prediction Accuracy: 99.8445% MPKI: 0.29148 Average ROB Occupancy at Mispredict: 80.4842
Branch types
NOT_BRANCH: 40627777 81.2556%
BRANCH_DIRECT_JUMP: 490939 0.981878%
BRANCH_INDIRECT: 175853 0.351706%
BRANCH_CONDITIONAL: 6321386 12.6428%
BRANCH_DIRECT_CALL: 1002064 2.00413%
BRANCH_INDIRECT_CALL: 189782 0.379564%
BRANCH_RETURN: 1191846 2.38369%
BRANCH_OTHER: 0 0%

DRAM PAGES: 1048576
Allocated PAGES: 2136
