
*** ChampSim Multicore Out-of-Order Simulator ***

Warmup Instructions: 50000000
Simulation Instructions: 50000000
Number of CPUs: 1
LLC sets: 2048
LLC ways: 16
Off-chip DRAM Size: 4096 MB Channels: 1 Width: 64-bit Data Rate: 6400 MT/s
CPU 0 runs ../IPC-traces//server_011.champsimtrace.xz
.xz
NUM_OF_IPS_IN_CRITICAL_IP_TRAINING: 64
NUM_OF_CRITICAL_IP_TRAINING_TABLE_WAYS: 2
NUM_OF_CRITICAL_IP_TRAINING_TABLE_SETS: 32
WOBBLY_CRITICAL_IP_CACHE_SETS: 32
WOBBLY_CRITICAL_IP_CACHE_WAYS: 4
BTB has LRU replacement policy
ITLB has LRU replacement policy
DTLB has LRU replacement policy
STLB has LRU replacement policy
CPU 0 L1I next line prefetcher
L1I has LRU replacement policy
IP Table Entries: 256
L1D has LRU replacement policy
Initialize SRRIP state for L2C
Initialize DRRIP state for LLC
Heartbeat CPU 0 instructions: 10000002 cycles: 2763888 heartbeat IPC: 3.61809 cumulative IPC: 3.61809 (Simulation time: 0 hr 1 min 54 sec) 
Heartbeat CPU 0 instructions: 20000002 cycles: 5526751 heartbeat IPC: 3.61943 cumulative IPC: 3.61876 (Simulation time: 0 hr 3 min 44 sec) 
Heartbeat CPU 0 instructions: 30000001 cycles: 8307871 heartbeat IPC: 3.59567 cumulative IPC: 3.61103 (Simulation time: 0 hr 5 min 33 sec) 
Heartbeat CPU 0 instructions: 40000003 cycles: 11065724 heartbeat IPC: 3.62601 cumulative IPC: 3.61477 (Simulation time: 0 hr 7 min 24 sec) 
Heartbeat CPU 0 instructions: 50000002 cycles: 13827086 heartbeat IPC: 3.6214 cumulative IPC: 3.61609 (Simulation time: 0 hr 9 min 13 sec) 

Warmup complete CPU 0 instructions: 50000002 cycles: 13827086 (Simulation time: 0 hr 9 min 13 sec) 

Heartbeat CPU 0 instructions: 60000002 cycles: 28211639 heartbeat IPC: 0.69519 cumulative IPC: 0.69519 (Simulation time: 0 hr 11 min 36 sec) 
Heartbeat CPU 0 instructions: 70000001 cycles: 43484861 heartbeat IPC: 0.654741 cumulative IPC: 0.674359 (Simulation time: 0 hr 13 min 53 sec) 
Heartbeat CPU 0 instructions: 80000001 cycles: 60622983 heartbeat IPC: 0.583494 cumulative IPC: 0.641082 (Simulation time: 0 hr 16 min 5 sec) 
Heartbeat CPU 0 instructions: 90000001 cycles: 75442505 heartbeat IPC: 0.674786 cumulative IPC: 0.649188 (Simulation time: 0 hr 18 min 20 sec) 
Heartbeat CPU 0 instructions: 100000000 cycles: 89895412 heartbeat IPC: 0.691902 cumulative IPC: 0.657304 (Simulation time: 0 hr 20 min 28 sec) 
Finished CPU 0 instructions: 50000000 cycles: 76068341 cumulative IPC: 0.657304 (Simulation time: 0 hr 20 min 28 sec) 

ChampSim completed all CPUs

Region of Interest Statistics

CPU 0 cumulative IPC: 0.657304 instructions: 50000000 cycles: 76068341

CPU 0 Average Load ROB stall cycles: 2.01609e+07
CPU 0 Fraction of times ROB stalled by Loads: 38.9473
CPU 0 Percentage of Load stall cycles in Total stall cycles: 2.40283e+08
Issued all: 27638879
Issued LT all: 21578008
rob_not_full_when_issued_lt_all: 20764646
Issued LT one: 17078315
rob_not_full_when_issued_lt_one: 16358535
 Total stall cycles: 61662806
 Total load stall cycles: 148165023245953
CPU 0 NUM of IPS identified critical: 0
CPU 0 Num of Load IPs stalling ROB: 47171
Threshold modification factor: 0
Max PIST entries: 64
Min PIST entries: 0
Avg PIST entries: 32
Trouble in retire width: 0.891654
MaC = Marked as critical.
lt_50_percent_before_Mac: 0
gt_90_percent_before_Mac: 0
gt_75_percent_before_Mac: 0
gt_50_percent_before_Mac: 0
stall_proportion_bin_same_before_after: 0
stall_proportion_bin_lower_before_after: 0
stall_proportion_bin_upper_before_after: 0
average_stall_proportion_before: -nan
average_stall_proportion_after: -nan
Critical IP stalls, total frequency: 0
Non-critical IP stalls, total frequency: 2862283
Total Freq all stalling IPs: 2862283
stat_90_percent_critical_ip_stalls_freq: 2576085
stat_90_percent_non_critical_ip_stalls_freq: 286198
Critical_IP_ROB_Stalls_Bucket_0: 0
Non-critical_IP_ROB_Stalls_Bucket_0: 1632367
Critical_IP_ROB_Stalls_Bucket_1: 0
Non-critical_IP_ROB_Stalls_Bucket_1: 765391
Critical_IP_ROB_Stalls_Bucket_2: 0
Non-critical_IP_ROB_Stalls_Bucket_2: 273560
Critical_IP_ROB_Stalls_Bucket_3: 0
Non-critical_IP_ROB_Stalls_Bucket_3: 86354
Critical_IP_ROB_Stalls_Bucket_4: 0
Non-critical_IP_ROB_Stalls_Bucket_4: 40766
Critical_IP_ROB_Stalls_Bucket_5: 0
Non-critical_IP_ROB_Stalls_Bucket_5: 21694
Critical_IP_ROB_Stalls_Bucket_6: 0
Non-critical_IP_ROB_Stalls_Bucket_6: 42151
0 => IPs accounting for >50 percent of stalls, 1 => 55, 2 => 60, 3 => 65 and so on till 90.
percent50: 50.0206 num IPs:  603
percent55: 55.0147 num IPs: 857
percent60: 60.0113 num IPs: 1196
percent65: 65.0061 num IPs: 1663
percent70: 70.0006 num IPs: 2340
percent75: 75.0018 num IPs: 3349
percent80: 80.0029 num IPs: 4777
percent85: 85.0006 num IPs: 6882
percent90: 90.001 num IPs: 9867
Critical_ROB_Stalls_Percent_0_Bucket_0: 733733
Non-critical_ROB_Stalls_Percent_0_Bucket_0: 898634
Critical_ROB_Stalls_Percent_0_Bucket_1: 449451
Non-critical_ROB_Stalls_Percent_0_Bucket_1: 315940
Critical_ROB_Stalls_Percent_0_Bucket_2: 165479
Non-critical_ROB_Stalls_Percent_0_Bucket_2: 108081
Critical_ROB_Stalls_Percent_0_Bucket_3: 39570
Non-critical_ROB_Stalls_Percent_0_Bucket_3: 46784
Critical_ROB_Stalls_Percent_0_Bucket_4: 17572
Non-critical_ROB_Stalls_Percent_0_Bucket_4: 23194
Critical_ROB_Stalls_Percent_0_Bucket_5: 7614
Non-critical_ROB_Stalls_Percent_0_Bucket_5: 14080
Critical_ROB_Stalls_Percent_0_Bucket_6: 18311
Non-critical_ROB_Stalls_Percent_0_Bucket_6: 23840
Critical_ROB_Stalls_Percent_1_Bucket_0: 803574
Non-critical_ROB_Stalls_Percent_1_Bucket_0: 828793
Critical_ROB_Stalls_Percent_1_Bucket_1: 497759
Non-critical_ROB_Stalls_Percent_1_Bucket_1: 267632
Critical_ROB_Stalls_Percent_1_Bucket_2: 179156
Non-critical_ROB_Stalls_Percent_1_Bucket_2: 94404
Critical_ROB_Stalls_Percent_1_Bucket_3: 44438
Non-critical_ROB_Stalls_Percent_1_Bucket_3: 41916
Critical_ROB_Stalls_Percent_1_Bucket_4: 19721
Non-critical_ROB_Stalls_Percent_1_Bucket_4: 21045
Critical_ROB_Stalls_Percent_1_Bucket_5: 9514
Non-critical_ROB_Stalls_Percent_1_Bucket_5: 12180
Critical_ROB_Stalls_Percent_1_Bucket_6: 20514
Non-critical_ROB_Stalls_Percent_1_Bucket_6: 21637
Critical_ROB_Stalls_Percent_2_Bucket_0: 879287
Non-critical_ROB_Stalls_Percent_2_Bucket_0: 753080
Critical_ROB_Stalls_Percent_2_Bucket_1: 538238
Non-critical_ROB_Stalls_Percent_2_Bucket_1: 227153
Critical_ROB_Stalls_Percent_2_Bucket_2: 191907
Non-critical_ROB_Stalls_Percent_2_Bucket_2: 81653
Critical_ROB_Stalls_Percent_2_Bucket_3: 50054
Non-critical_ROB_Stalls_Percent_2_Bucket_3: 36300
Critical_ROB_Stalls_Percent_2_Bucket_4: 22742
Non-critical_ROB_Stalls_Percent_2_Bucket_4: 18024
Critical_ROB_Stalls_Percent_2_Bucket_5: 11978
Non-critical_ROB_Stalls_Percent_2_Bucket_5: 9716
Critical_ROB_Stalls_Percent_2_Bucket_6: 23487
Non-critical_ROB_Stalls_Percent_2_Bucket_6: 18664
Critical_ROB_Stalls_Percent_3_Bucket_0: 965871
Non-critical_ROB_Stalls_Percent_3_Bucket_0: 666496
Critical_ROB_Stalls_Percent_3_Bucket_1: 572986
Non-critical_ROB_Stalls_Percent_3_Bucket_1: 192405
Critical_ROB_Stalls_Percent_3_Bucket_2: 202097
Non-critical_ROB_Stalls_Percent_3_Bucket_2: 71463
Critical_ROB_Stalls_Percent_3_Bucket_3: 54407
Non-critical_ROB_Stalls_Percent_3_Bucket_3: 31947
Critical_ROB_Stalls_Percent_3_Bucket_4: 25187
Non-critical_ROB_Stalls_Percent_3_Bucket_4: 15579
Critical_ROB_Stalls_Percent_3_Bucket_5: 13950
Non-critical_ROB_Stalls_Percent_3_Bucket_5: 7744
Critical_ROB_Stalls_Percent_3_Bucket_6: 26160
Non-critical_ROB_Stalls_Percent_3_Bucket_6: 15991
Critical_ROB_Stalls_Percent_4_Bucket_0: 1049978
Non-critical_ROB_Stalls_Percent_4_Bucket_0: 582389
Critical_ROB_Stalls_Percent_4_Bucket_1: 608725
Non-critical_ROB_Stalls_Percent_4_Bucket_1: 156666
Critical_ROB_Stalls_Percent_4_Bucket_2: 214354
Non-critical_ROB_Stalls_Percent_4_Bucket_2: 59206
Critical_ROB_Stalls_Percent_4_Bucket_3: 59407
Non-critical_ROB_Stalls_Percent_4_Bucket_3: 26947
Critical_ROB_Stalls_Percent_4_Bucket_4: 27958
Non-critical_ROB_Stalls_Percent_4_Bucket_4: 12808
Critical_ROB_Stalls_Percent_4_Bucket_5: 15211
Non-critical_ROB_Stalls_Percent_4_Bucket_5: 6483
Critical_ROB_Stalls_Percent_4_Bucket_6: 27983
Non-critical_ROB_Stalls_Percent_4_Bucket_6: 14168
Critical_ROB_Stalls_Percent_5_Bucket_0: 1142456
Non-critical_ROB_Stalls_Percent_5_Bucket_0: 489911
Critical_ROB_Stalls_Percent_5_Bucket_1: 641300
Non-critical_ROB_Stalls_Percent_5_Bucket_1: 124091
Critical_ROB_Stalls_Percent_5_Bucket_2: 223919
Non-critical_ROB_Stalls_Percent_5_Bucket_2: 49641
Critical_ROB_Stalls_Percent_5_Bucket_3: 63379
Non-critical_ROB_Stalls_Percent_5_Bucket_3: 22975
Critical_ROB_Stalls_Percent_5_Bucket_4: 30302
Non-critical_ROB_Stalls_Percent_5_Bucket_4: 10464
Critical_ROB_Stalls_Percent_5_Bucket_5: 16172
Non-critical_ROB_Stalls_Percent_5_Bucket_5: 5522
Critical_ROB_Stalls_Percent_5_Bucket_6: 29237
Non-critical_ROB_Stalls_Percent_5_Bucket_6: 12914
Critical_ROB_Stalls_Percent_6_Bucket_0: 1229068
Non-critical_ROB_Stalls_Percent_6_Bucket_0: 403299
Critical_ROB_Stalls_Percent_6_Bucket_1: 675096
Non-critical_ROB_Stalls_Percent_6_Bucket_1: 90295
Critical_ROB_Stalls_Percent_6_Bucket_2: 235947
Non-critical_ROB_Stalls_Percent_6_Bucket_2: 37613
Critical_ROB_Stalls_Percent_6_Bucket_3: 68700
Non-critical_ROB_Stalls_Percent_6_Bucket_3: 17654
Critical_ROB_Stalls_Percent_6_Bucket_4: 32995
Non-critical_ROB_Stalls_Percent_6_Bucket_4: 7771
Critical_ROB_Stalls_Percent_6_Bucket_5: 17226
Non-critical_ROB_Stalls_Percent_6_Bucket_5: 4468
Critical_ROB_Stalls_Percent_6_Bucket_6: 30876
Non-critical_ROB_Stalls_Percent_6_Bucket_6: 11275
Critical_ROB_Stalls_Percent_7_Bucket_0: 1321341
Non-critical_ROB_Stalls_Percent_7_Bucket_0: 311026
Critical_ROB_Stalls_Percent_7_Bucket_1: 700188
Non-critical_ROB_Stalls_Percent_7_Bucket_1: 65203
Critical_ROB_Stalls_Percent_7_Bucket_2: 245894
Non-critical_ROB_Stalls_Percent_7_Bucket_2: 27666
Critical_ROB_Stalls_Percent_7_Bucket_3: 73577
Non-critical_ROB_Stalls_Percent_7_Bucket_3: 12777
Critical_ROB_Stalls_Percent_7_Bucket_4: 35570
Non-critical_ROB_Stalls_Percent_7_Bucket_4: 5196
Critical_ROB_Stalls_Percent_7_Bucket_5: 18905
Non-critical_ROB_Stalls_Percent_7_Bucket_5: 2789
Critical_ROB_Stalls_Percent_7_Bucket_6: 37480
Non-critical_ROB_Stalls_Percent_7_Bucket_6: 4671
Critical_ROB_Stalls_Percent_8_Bucket_0: 1419886
Non-critical_ROB_Stalls_Percent_8_Bucket_0: 212481
Critical_ROB_Stalls_Percent_8_Bucket_1: 725263
Non-critical_ROB_Stalls_Percent_8_Bucket_1: 40128
Critical_ROB_Stalls_Percent_8_Bucket_2: 255952
Non-critical_ROB_Stalls_Percent_8_Bucket_2: 17608
Critical_ROB_Stalls_Percent_8_Bucket_3: 78583
Non-critical_ROB_Stalls_Percent_8_Bucket_3: 7771
Critical_ROB_Stalls_Percent_8_Bucket_4: 37219
Non-critical_ROB_Stalls_Percent_8_Bucket_4: 3547
Critical_ROB_Stalls_Percent_8_Bucket_5: 19816
Non-critical_ROB_Stalls_Percent_8_Bucket_5: 1878
Critical_ROB_Stalls_Percent_8_Bucket_6: 39366
Non-critical_ROB_Stalls_Percent_8_Bucket_6: 2785
Average ROB occupancy Load Stall Begin: 50.2081
Average ROB occupancy Load Stall End: 60.8584
Min ROB occupancy Load Stall Begin: 1
Max ROB occupancy Load Stall Begin: 352
Min ROB occupancy Load Stall End: 1
Max ROB occupancy Load Stall End: 352
Average ROB occupancy Critical Load Stall Begin: -nan
Average ROB occupancy Critical Load Stall End: -nan
Min ROB occupancy Critical Load Stall Begin: 400
Max ROB occupancy Critical Load Stall Begin: 0
Min ROB occupancy Critical Load Stall End: 400
Max ROB occupancy Critical Load Stall End: 0
 ROB Load Stall Begin Bucket Count 0: 1927526
 ROB Load Stall End Bucket Count 0: 1632367
 ROB Critical Load Stall Begin Bucket Count 0: 0
 ROB Critical Load Stall End Bucket Count 0: 0
 ROB Load Stall Begin Bucket Count 1: 578372
 ROB Load Stall End Bucket Count 1: 765391
 ROB Critical Load Stall Begin Bucket Count 1: 0
 ROB Critical Load Stall End Bucket Count 1: 0
 ROB Load Stall Begin Bucket Count 2: 207514
 ROB Load Stall End Bucket Count 2: 273560
 ROB Critical Load Stall Begin Bucket Count 2: 0
 ROB Critical Load Stall End Bucket Count 2: 0
 ROB Load Stall Begin Bucket Count 3: 63468
 ROB Load Stall End Bucket Count 3: 86354
 ROB Critical Load Stall Begin Bucket Count 3: 0
 ROB Critical Load Stall End Bucket Count 3: 0
 ROB Load Stall Begin Bucket Count 4: 30897
 ROB Load Stall End Bucket Count 4: 40766
 ROB Critical Load Stall Begin Bucket Count 4: 0
 ROB Critical Load Stall End Bucket Count 4: 0
 ROB Load Stall Begin Bucket Count 5: 18620
 ROB Load Stall End Bucket Count 5: 21694
 ROB Critical Load Stall Begin Bucket Count 5: 0
 ROB Critical Load Stall End Bucket Count 5: 0
 ROB Load Stall Begin Bucket Count 6: 35886
 ROB Load Stall End Bucket Count 6: 42151
 ROB Critical Load Stall Begin Bucket Count 6: 0
 ROB Critical Load Stall End Bucket Count 6: 0
PIST Tag Read Accesses: 2336012
PIST Read Accesses: 1168006
PIST Tag Write Accesses: 2336012
PIST Write Accesses: 1168006
Criticality detector called times: 2794718
Max global_stall_cycles_count: 2842096
Threshold Modified: 0 times, factor: 0
Sturdy critical IP cache stats: 
 Unused entries: 0
CIC Tag Read Accesses: 0
CIC Read Accesses: 0
CIC Tag Write Accesses: 0
CIC Write Accesses: 0
Wobbly critical IP cache stats: 
 Unused entries: 76
CIC Tag Read Accesses: 137162805
CIC Read Accesses: 0
CIC Tag Write Accesses: 487
CIC Write Accesses: 0
ITLB TOTAL     ACCESS:    9077961  HIT:    8856508  MISS:     221453  HIT %:    97.5605  MISS %:    2.43946   MPKI: 4.42906
ITLB LOAD TRANSLATION ACCESS:    7872494  HIT:    7797595  MISS:      74899  HIT %:    99.0486  MISS %:   0.951401   MPKI: 1.49798
ITLB TRANSLATION FROM L1D PREFETCHER ACCESS:    1205467  HIT:    1058913  MISS:     146554  HIT %:    87.8426  MISS %:    12.1574   MPKI: 2.93108
ITLB PREFETCH  REQUESTED:          0  ISSUED:          0  USEFUL:     116632  USELESS:      29925
ITLB USEFUL LOAD PREFETCHES:     116632 PREFETCH ISSUED TO LOWER LEVEL:          0  ACCURACY: inf
ITLB TIMELY PREFETCHES:     116632 LATE PREFETCHES: 939 DROPPED PREFETCHES: 4751
ITLB PREFETCHES SAME FILL-ORIGIN LEVEL: 0 DIFFERENT FILL-ORIGIN LEVEL: 0
ITLB AVERAGE MISS LATENCY: 231316 cycles
ITLB RQ	ACCESS:   12405554	FORWARD:          0	MERGED:    3291735	TO_CACHE:    9113819

DTLB TOTAL     ACCESS:    9682957  HIT:    9107589  MISS:     575368  HIT %:    94.0579  MISS %:    5.94207   MPKI: 11.5074
DTLB LOAD TRANSLATION ACCESS:    9682957  HIT:    9107589  MISS:     575368  HIT %:    94.0579  MISS %:    5.94207   MPKI: 11.5074
DTLB PREFETCH  REQUESTED:          0  ISSUED:          0  USEFUL:          0  USELESS:          0
DTLB USEFUL LOAD PREFETCHES:          0 PREFETCH ISSUED TO LOWER LEVEL:          0  ACCURACY: -nan
DTLB TIMELY PREFETCHES:          0 LATE PREFETCHES: 0 DROPPED PREFETCHES: 0
DTLB PREFETCHES SAME FILL-ORIGIN LEVEL: 0 DIFFERENT FILL-ORIGIN LEVEL: 0
DTLB AVERAGE MISS LATENCY: 15.0727 cycles
DTLB RQ	ACCESS:   12236720	FORWARD:          0	MERGED:    2517068	TO_CACHE:    9719652

STLB TOTAL     ACCESS:     810331  HIT:     707872  MISS:     102459  HIT %:    87.3559  MISS %:    12.6441   MPKI: 2.04918
STLB LOAD TRANSLATION ACCESS:     649329  HIT:     569168  MISS:      80161  HIT %:    87.6548  MISS %:    12.3452   MPKI: 1.60322
STLB TRANSLATION FROM L1D PREFETCHER ACCESS:     161002  HIT:     138704  MISS:      22298  HIT %:    86.1505  MISS %:    13.8495   MPKI: 0.44596
STLB PREFETCH  REQUESTED:          0  ISSUED:          0  USEFUL:      13343  USELESS:       8957
STLB USEFUL LOAD PREFETCHES:      13343 PREFETCH ISSUED TO LOWER LEVEL:          0  ACCURACY: inf
STLB TIMELY PREFETCHES:      13343 LATE PREFETCHES: 6 DROPPED PREFETCHES: 4752
STLB PREFETCHES SAME FILL-ORIGIN LEVEL: 0 DIFFERENT FILL-ORIGIN LEVEL: 0
STLB AVERAGE MISS LATENCY: 48.4135 cycles
STLB RQ	ACCESS:     851202	FORWARD:          0	MERGED:      36113	TO_CACHE:     815089

STLB Hit, L1D data hit: 0
STLB Hit, L2C data hit: 0
STLB Hit, LLC data hit: 0
STLB Hit, LLC data miss: 0
STLB STLB hints to L2: 0
L1D TOTAL     ACCESS:   12118269  HIT:   11478061  MISS:     640208  HIT %:     94.717  MISS %:      5.283   MPKI: 12.8042
L1D LOAD      ACCESS:    7233371  HIT:    6693834  MISS:     539537  HIT %:     92.541  MISS %:      7.459   MPKI: 10.7907
L1D RFO       ACCESS:    4835340  HIT:    4744167  MISS:      91173  HIT %:    98.1144  MISS %:    1.88556   MPKI: 1.82346
L1D PREFETCH  ACCESS:      49558  HIT:      40060  MISS:       9498  HIT %:    80.8346  MISS %:    19.1654   MPKI: 0.18996
L1D PREFETCH  REQUESTED:      99284  ISSUED:      99258  USEFUL:       3546  USELESS:       5950
L1D USEFUL LOAD PREFETCHES:       3546 PREFETCH ISSUED TO LOWER LEVEL:       9553  ACCURACY: 37.1192
L1D TIMELY PREFETCHES:       3546 LATE PREFETCHES: 55 DROPPED PREFETCHES: 0
L1D PREFETCHES SAME FILL-ORIGIN LEVEL: 9553 DIFFERENT FILL-ORIGIN LEVEL: 0
L1D AVERAGE MISS LATENCY: 4847.42 cycles
L1D RQ	ACCESS:   11100694	FORWARD:          0	MERGED:    3746241	TO_CACHE:    7274027
L1D WQ	ACCESS:    5073610	FORWARD:      80426	MERGED:     110917	TO_CACHE:    4962693
L1D PQ	ACCESS:      49629	FORWARD:          0	MERGED:          0	TO_CACHE:      49629

L1D UNIQUE REGIONS ACCESSED: 0
L1D REGIONS CONFLICTS: 0
L1D Cross Page Prefetch Requests: 0
L1D Same Page Prefetch Requests: 49629
L1D ROI Sum of L1D PQ occupancy: 755442
L1D PREFETCHES PUSHED FROM L2C: 0
L1I TOTAL     ACCESS:   12252198  HIT:   10372690  MISS:    1879508  HIT %:    84.6598  MISS %:    15.3402   MPKI: 37.5902
L1I LOAD      ACCESS:    9554552  HIT:    9277086  MISS:     277466  HIT %:     97.096  MISS %:    2.90402   MPKI: 5.54932
L1I PREFETCH  ACCESS:    2697646  HIT:    1095604  MISS:    1602042  HIT %:    40.6133  MISS %:    59.3867   MPKI: 32.0408
L1I PREFETCH  REQUESTED:    2925422  ISSUED:    2918386  USEFUL:    1042301  USELESS:     559744
L1I USEFUL LOAD PREFETCHES:    1042301 PREFETCH ISSUED TO LOWER LEVEL:    1634332  ACCURACY: 63.7754
L1I TIMELY PREFETCHES:    1042301 LATE PREFETCHES: 32290 DROPPED PREFETCHES: 15162
L1I PREFETCHES SAME FILL-ORIGIN LEVEL: 1634332 DIFFERENT FILL-ORIGIN LEVEL: 0
L1I AVERAGE MISS LATENCY: 903684 cycles
L1I RQ	ACCESS:   13821968	FORWARD:          0	MERGED:    4240246	TO_CACHE:    9581722
L1I PQ	ACCESS:    2918386	FORWARD:          0	MERGED:      94554	TO_CACHE:    2823832

BTB TOTAL     ACCESS:    5007119  HIT:    4225540  MISS:     781579  HIT %:    84.3906  MISS %:    15.6094   MPKI: 15.6316
BTB BRANCH_DIRECT_JUMP	ACCESS:     451601  HIT:     395730  MISS:      55871
BTB BRANCH_INDIRECT	ACCESS:     151580  HIT:     115440  MISS:      36140
BTB BRANCH_CONDITIONAL	ACCESS:    2656300  HIT:    2427735  MISS:     228565
BTB BRANCH_DIRECT_CALL	ACCESS:     647826  HIT:     542970  MISS:     104856
BTB BRANCH_INDIRECT_CALL	ACCESS:     211373  HIT:     173798  MISS:      37575
BTB BRANCH_RETURN	ACCESS:     888439  HIT:     569867  MISS:     318572
BTB BRANCH_OTHER ACCESS:          0  HIT:          0  MISS:          0

L2C TOTAL     ACCESS:    2907774  HIT:    1837884  MISS:    1069890  HIT %:    63.2059  MISS %:    36.7941   MPKI: 21.3978
L2C LOAD      ACCESS:     784646  HIT:     407668  MISS:     376978  HIT %:    51.9557  MISS %:    48.0443   MPKI: 7.53956
L2C DATA LOAD MPKI: 5.60724
L2C INSTRUCTION LOAD MPKI: 1.93232
L2C RFO       ACCESS:      91169  HIT:      41432  MISS:      49737  HIT %:    45.4453  MISS %:    54.5547   MPKI: 0.99474
L2C PREFETCH  ACCESS:    1643878  HIT:    1073150  MISS:     570728  HIT %:    65.2816  MISS %:    34.7184   MPKI: 11.4146
L2C DATA PREFETCH MPKI: 0.09514
L2C INSTRUCTION PREFETCH MPKI: 11.3194
L2C WRITEBACK ACCESS:     249269  HIT:     229702  MISS:      19567  HIT %:    92.1502  MISS %:    7.84975   MPKI: 0.39134
L2C LOAD TRANSLATION ACCESS:     105243  HIT:      60733  MISS:      44510  HIT %:    57.7074  MISS %:    42.2926   MPKI: 0.8902
L2C TRANSLATION FROM L1D PREFETCHER ACCESS:      33569  HIT:      25199  MISS:       8370  HIT %:    75.0663  MISS %:    24.9337   MPKI: 0.1674
L2C PREFETCH  REQUESTED:          0  ISSUED:          0  USEFUL:      18725  USELESS:     560244
L2C USEFUL LOAD PREFETCHES:      18725 PREFETCH ISSUED TO LOWER LEVEL:     570729  ACCURACY: 3.28089
L2C TIMELY PREFETCHES:      18725 LATE PREFETCHES: 1 DROPPED PREFETCHES: 0
L2C PREFETCHES SAME FILL-ORIGIN LEVEL: 0 DIFFERENT FILL-ORIGIN LEVEL: 0
L2C AVERAGE MISS LATENCY: 45.0643 cycles
L2C RQ	ACCESS:    1014643	FORWARD:          0	MERGED:          0	TO_CACHE:    1014627
L2C WQ	ACCESS:     249269	FORWARD:         16	MERGED:          0	TO_CACHE:     249269
L2C PQ	ACCESS:    1643885	FORWARD:          0	MERGED:          0	TO_CACHE:    1643885

L2C Instructions Evicting Data 218812
L2C Translations Evicting Data 17651
L2C Data Evicting Data 111683
L2C Instructions Evicting Instructions 411462
L2C Translations Evicting Instructions 32403
L2C Data Evicting Instructions 206318
L2C Instructions Evicting Translations 32313
L2C Translations Evicting Translations 2826
L2C Data Evicting Translations 16855
L2C Dense regions hint from L2: 0
PSCL5 TOTAL     ACCESS:     107211  HIT:     107211  MISS:          0  HIT %:        100  MISS %:          0   MPKI: 0
PSCL5 LOAD TRANSLATION ACCESS:      80155  HIT:      80155  MISS:          0  HIT %:        100  MISS %:          0   MPKI: 0
PSCL5 TRANSLATION FROM L1D PREFETCHER ACCESS:      27056  HIT:      27056  MISS:          0  HIT %:        100  MISS %:          0   MPKI: 0
PSCL5 PREFETCH  REQUESTED:          0  ISSUED:          0  USEFUL:          0  USELESS:          0
PSCL5 USEFUL LOAD PREFETCHES:          0 PREFETCH ISSUED TO LOWER LEVEL:          0  ACCURACY: -nan
PSCL5 TIMELY PREFETCHES:          0 LATE PREFETCHES: 0 DROPPED PREFETCHES: 0
PSCL5 PREFETCHES SAME FILL-ORIGIN LEVEL: 0 DIFFERENT FILL-ORIGIN LEVEL: 0

PSCL4 TOTAL     ACCESS:      99794  HIT:      99509  MISS:        285  HIT %:    99.7144  MISS %:   0.285588   MPKI: 0.0057
PSCL4 LOAD TRANSLATION ACCESS:      74520  HIT:      74235  MISS:        285  HIT %:    99.6176  MISS %:   0.382448   MPKI: 0.0057
PSCL4 TRANSLATION FROM L1D PREFETCHER ACCESS:      25274  HIT:      25274  MISS:          0  HIT %:        100  MISS %:          0   MPKI: 0
PSCL4 PREFETCH  REQUESTED:          0  ISSUED:          0  USEFUL:          0  USELESS:          0
PSCL4 USEFUL LOAD PREFETCHES:          0 PREFETCH ISSUED TO LOWER LEVEL:          0  ACCURACY: -nan
PSCL4 TIMELY PREFETCHES:          0 LATE PREFETCHES: 0 DROPPED PREFETCHES: 0
PSCL4 PREFETCHES SAME FILL-ORIGIN LEVEL: 0 DIFFERENT FILL-ORIGIN LEVEL: 0

PSCL3 TOTAL     ACCESS:     105438  HIT:     104585  MISS:        853  HIT %:     99.191  MISS %:   0.809006   MPKI: 0.01706
PSCL3 LOAD TRANSLATION ACCESS:      79595  HIT:      78742  MISS:        853  HIT %:    98.9283  MISS %:    1.07168   MPKI: 0.01706
PSCL3 TRANSLATION FROM L1D PREFETCHER ACCESS:      25843  HIT:      25843  MISS:          0  HIT %:        100  MISS %:          0   MPKI: 0
PSCL3 PREFETCH  REQUESTED:          0  ISSUED:          0  USEFUL:          0  USELESS:          0
PSCL3 USEFUL LOAD PREFETCHES:          0 PREFETCH ISSUED TO LOWER LEVEL:          0  ACCURACY: -nan
PSCL3 TIMELY PREFETCHES:          0 LATE PREFETCHES: 0 DROPPED PREFETCHES: 0
PSCL3 PREFETCHES SAME FILL-ORIGIN LEVEL: 0 DIFFERENT FILL-ORIGIN LEVEL: 0

PSCL2 TOTAL     ACCESS:     104701  HIT:      77525  MISS:      27176  HIT %:    74.0442  MISS %:    25.9558   MPKI: 0.54352
PSCL2 LOAD TRANSLATION ACCESS:      83137  HIT:      55961  MISS:      27176  HIT %:    67.3118  MISS %:    32.6882   MPKI: 0.54352
PSCL2 TRANSLATION FROM L1D PREFETCHER ACCESS:      21564  HIT:      21564  MISS:          0  HIT %:        100  MISS %:          0   MPKI: 0
PSCL2 PREFETCH  REQUESTED:          0  ISSUED:          0  USEFUL:          0  USELESS:          0
PSCL2 USEFUL LOAD PREFETCHES:          0 PREFETCH ISSUED TO LOWER LEVEL:          0  ACCURACY: -nan
PSCL2 TIMELY PREFETCHES:          0 LATE PREFETCHES: 0 DROPPED PREFETCHES: 0
PSCL2 PREFETCHES SAME FILL-ORIGIN LEVEL: 0 DIFFERENT FILL-ORIGIN LEVEL: 0

LLC TOTAL     ACCESS:    1175498  HIT:    1068300  MISS:     107198  HIT %:    90.8806  MISS %:    9.11937   MPKI: 2.14396
LLC LOAD      ACCESS:     376976  HIT:     316788  MISS:      60188  HIT %:     84.034  MISS %:     15.966   MPKI: 1.20376
LLC RFO       ACCESS:      49737  HIT:      30492  MISS:      19245  HIT %:    61.3065  MISS %:    38.6935   MPKI: 0.3849
LLC PREFETCH  ACCESS:     570729  HIT:     547328  MISS:      23401  HIT %:    95.8998  MISS %:    4.10019   MPKI: 0.46802
LLC WRITEBACK ACCESS:     125176  HIT:     123015  MISS:       2161  HIT %:    98.2736  MISS %:    1.72637   MPKI: 0.04322
LLC LOAD TRANSLATION ACCESS:      44510  HIT:      42399  MISS:       2111  HIT %:    95.2572  MISS %:    4.74275   MPKI: 0.04222
LLC TRANSLATION FROM L1D PREFETCHER ACCESS:       8370  HIT:       8278  MISS:         92  HIT %:    98.9008  MISS %:    1.09916   MPKI: 0.00184
LLC PREFETCH  REQUESTED:          0  ISSUED:          0  USEFUL:       1413  USELESS:      19316
LLC USEFUL LOAD PREFETCHES:       1413 PREFETCH ISSUED TO LOWER LEVEL:      23401  ACCURACY: 6.0382
LLC TIMELY PREFETCHES:       1413 LATE PREFETCHES: 0 DROPPED PREFETCHES: 0
LLC PREFETCHES SAME FILL-ORIGIN LEVEL: 0 DIFFERENT FILL-ORIGIN LEVEL: 0
LLC AVERAGE MISS LATENCY: 155.132 cycles
LLC RQ	ACCESS:     479594	FORWARD:          0	MERGED:          0	TO_CACHE:     479593
LLC WQ	ACCESS:     125176	FORWARD:          1	MERGED:          0	TO_CACHE:     125176
LLC PQ	ACCESS:     570729	FORWARD:          0	MERGED:          0	TO_CACHE:     570729

LLC Dense regions hint to LLC: 0

RAW hits: 995976
Loads Generated: 12096670
Loads sent to L1D: 11100694
Stores Generated: 5073603
Stores sent to L1D: 5073610
Major fault: 0 Minor fault: 7361
Allocated PAGES: 7361
I-Shadow cache 408 bytes
Touched + WorthPF tables 6144 bytes 
MMA filter 174 bytes 
FNL filter 272 bytes 
TOTAL PREFETCHER STORAGE SIZE: 25174 bytes
CPU 0 L1I next line prefetcher final stats

stream: 
stream:times selected: 20809
stream:pref_filled: 7953
stream:pref_useful: 2549
stream:pref_late: 28
stream:misses: 214
stream:misses_by_poll: 0

CS: 
CS:times selected: 2011
CS:pref_filled: 994
CS:pref_useful: 898
CS:pref_late: 9
CS:misses: 4
CS:misses_by_poll: 0

CPLX: 
CPLX:times selected: 18562
CPLX:pref_filled: 536
CPLX:pref_useful: 97
CPLX:pref_late: 0
CPLX:misses: 787
CPLX:misses_by_poll: 6

NL_L1: 
NL:times selected: 78
NL:pref_filled: 15
NL:pref_useful: 2
NL:pref_late: 0
NL:misses: 17
NL:misses_by_poll: 0

total selections: 41460
total_filled: 9498
total_useful: 3546
total_late: 55
total_polluted: 6
total_misses_after_warmup: 1058
conflicts: 72
Degree Incremented Times: 26
Degree Decremented Times: 71

L1 IP Table Write Accesses: 69498
L1 IP Table Read Accesses: 69426
L1 RST Write Accesses: 20810
L1 RST Read Accesses: 41611
L1 CSPT Write Accesses: 20810
L1 CSPT Read Accesses: 43812
L1 RR Filter Tag Write Accesses: 49655
L1 RR Filter Tag Read Accesses: 3195535
L1 IP Table Tag Write Accesses: 69535
L1 IP Table Tag Read Accesses: 69535
L1 RST Tag Write Accesses: 56
L1 RST Tag Read Accesses: 178862
L1 RR Filter Write Accesses: 0
L1 RR Filter Read Accesses: 122227
test: 6126

DRAM Statistics
 CHANNEL 0
 RQ ROW_BUFFER_HIT:      20218  ROW_BUFFER_MISS:      84818
 DBUS_CONGESTED:         78
 WQ ROW_BUFFER_HIT:      11727  ROW_BUFFER_MISS:      46530  FULL:          0

 AVG_CONGESTED_CYCLE: 4
 All warmup complete: 2
Channel 0 Bank busy for read cycles: 0
Channel 0 Bank busy for write cycles: 0
Channel 0
Rank 0
0banks busy for read cycles: 61265065
0banks busy for write cycles: 24413
1banks busy for read cycles: 6577476
1banks busy for write cycles: 3388237
2banks busy for read cycles: 1523344
2banks busy for write cycles: 1092117
3banks busy for read cycles: 430491
3banks busy for write cycles: 439487
4banks busy for read cycles: 206231
4banks busy for write cycles: 236660
5banks busy for read cycles: 123617
5banks busy for write cycles: 153840
6banks busy for read cycles: 124573
6banks busy for write cycles: 116183
7banks busy for read cycles: 60655
7banks busy for write cycles: 115069
8banks busy for read cycles: 26650
8banks busy for write cycles: 164234

CPU 0 Branch Prediction Accuracy: 97.5565% MPKI: 4.59006 Average ROB Occupancy at Mispredict: 38.3342
Branch types
NOT_BRANCH: 40607200 81.2144%
BRANCH_DIRECT_JUMP: 451601 0.903202%
BRANCH_INDIRECT: 151580 0.30316%
BRANCH_CONDITIONAL: 7041635 14.0833%
BRANCH_DIRECT_CALL: 647826 1.29565%
BRANCH_INDIRECT_CALL: 211373 0.422746%
BRANCH_RETURN: 888439 1.77688%
BRANCH_OTHER: 0 0%

DRAM PAGES: 1048576
Allocated PAGES: 7361
