
*** ChampSim Multicore Out-of-Order Simulator ***

Warmup Instructions: 50000000
Simulation Instructions: 50000000
Number of CPUs: 1
LLC sets: 2048
LLC ways: 16
Off-chip DRAM Size: 4096 MB Channels: 1 Width: 64-bit Data Rate: 6400 MT/s
CPU 0 runs ../IPC-traces//server_016.champsimtrace.xz
.xz
NUM_OF_IPS_IN_CRITICAL_IP_TRAINING: 64
NUM_OF_CRITICAL_IP_TRAINING_TABLE_WAYS: 2
NUM_OF_CRITICAL_IP_TRAINING_TABLE_SETS: 32
WOBBLY_CRITICAL_IP_CACHE_SETS: 32
WOBBLY_CRITICAL_IP_CACHE_WAYS: 4
BTB has LRU replacement policy
ITLB has LRU replacement policy
DTLB has LRU replacement policy
STLB has LRU replacement policy
CPU 0 L1I next line prefetcher
L1I has LRU replacement policy
L1D has LRU replacement policy
Bingo PHT WAYS: 16 and PHT_SIZE: 16384
Initialize SRRIP state for L2C
Initialize DRRIP state for LLC
Heartbeat CPU 0 instructions: 10000000 cycles: 2875531 heartbeat IPC: 3.47762 cumulative IPC: 3.47762 (Simulation time: 0 hr 2 min 55 sec) 
Heartbeat CPU 0 instructions: 20000000 cycles: 5746376 heartbeat IPC: 3.48329 cumulative IPC: 3.48045 (Simulation time: 0 hr 5 min 30 sec) 
Heartbeat CPU 0 instructions: 30000001 cycles: 8614361 heartbeat IPC: 3.48677 cumulative IPC: 3.48256 (Simulation time: 0 hr 8 min 5 sec) 
Heartbeat CPU 0 instructions: 40000001 cycles: 11768213 heartbeat IPC: 3.17073 cumulative IPC: 3.39899 (Simulation time: 0 hr 9 min 9 sec) 
Heartbeat CPU 0 instructions: 50000002 cycles: 15003677 heartbeat IPC: 3.09075 cumulative IPC: 3.33252 (Simulation time: 0 hr 9 min 53 sec) 

Warmup complete CPU 0 instructions: 50000002 cycles: 15003677 (Simulation time: 0 hr 9 min 53 sec) 

% increase in all ip prefetch 344.187
% increase in all ip prefetch -0.0090097
Heartbeat CPU 0 instructions: 60000001 cycles: 29641197 heartbeat IPC: 0.683176 cumulative IPC: 0.683176 (Simulation time: 0 hr 11 min 48 sec) 
Heartbeat CPU 0 instructions: 70000001 cycles: 45532216 heartbeat IPC: 0.629286 cumulative IPC: 0.655125 (Simulation time: 0 hr 14 min 20 sec) 
Heartbeat CPU 0 instructions: 80000000 cycles: 61561008 heartbeat IPC: 0.623877 cumulative IPC: 0.644367 (Simulation time: 0 hr 16 min 49 sec) 
Heartbeat CPU 0 instructions: 90000000 cycles: 77179326 heartbeat IPC: 0.640274 cumulative IPC: 0.643339 (Simulation time: 0 hr 19 min 16 sec) 
Heartbeat CPU 0 instructions: 100000000 cycles: 93072786 heartbeat IPC: 0.62919 cumulative IPC: 0.640458 (Simulation time: 0 hr 21 min 48 sec) 
Finished CPU 0 instructions: 50000000 cycles: 78069110 cumulative IPC: 0.640458 (Simulation time: 0 hr 21 min 48 sec) 

ChampSim completed all CPUs

Region of Interest Statistics

CPU 0 cumulative IPC: 0.640458 instructions: 50000000 cycles: 78069110

CPU 0 Average Load ROB stall cycles: 2.01034e+07
CPU 0 Fraction of times ROB stalled by Loads: 38.068
CPU 0 Percentage of Load stall cycles in Total stall cycles: 2.83318e+08
Issued all: 28650072
Issued LT all: 22406441
rob_not_full_when_issued_lt_all: 22112214
Issued LT one: 18228169
rob_not_full_when_issued_lt_one: 17972600
critical_ip_candidate_identification_operations: 6968402
critical_ip_candidate_identification_operation_per_cycle: 0.0892594
 Total stall cycles: 64943847
 Total load stall cycles: 183997478042421
Unique Load IPs: 13820
CPU 0 NUM of IPS identified critical: 18
CPU 0 Num of Load IPs stalling ROB: 12059
Threshold modification factor: -1
Max PIST entries: 64
Min PIST entries: 0
Avg PIST entries: 29.7
Trouble in retire width: 0.881456
MaC = Marked as critical.
lt_50_percent_before_Mac: 18
gt_90_percent_before_Mac: 0
gt_75_percent_before_Mac: 0
gt_50_percent_before_Mac: 0
stall_proportion_bin_same_before_after: 0
stall_proportion_bin_lower_before_after: 0
stall_proportion_bin_upper_before_after: 0
average_stall_proportion_before: 0.076395
average_stall_proportion_after: 0.0762207
Critical IP stalls, total frequency: 812398
Non-critical IP stalls, total frequency: 2671803
Total Freq all stalling IPs: 3484201
Critical_IP_Detector_Accuracy_70: 0.944444
Critical_IP_Detector_Accuracy_80: 1
Critical_IP_Detector_Accuracy_90: 1
Critical_IP_Detector_Coverage_70: 0.0165049
Critical_IP_Detector_Coverage_80: 0.00979858
Critical_IP_Detector_Coverage_90: 0.00580271
stat_90_percent_critical_ip_stalls_freq: 3135932
stat_90_percent_non_critical_ip_stalls_freq: 348269
AVERAGE_ROB_Occupancy_90_Percent_Critical_IP_Stalls: 44.3565
AVERAGE_ROB_Occupancy_90_Percent_Non_Critical_IP_Stalls: 27.5726
Critical_IP_ROB_Stalls_Bucket_0: 631118
Non-critical_IP_ROB_Stalls_Bucket_0: 1923689
Critical_IP_ROB_Stalls_Bucket_1: 72464
Non-critical_IP_ROB_Stalls_Bucket_1: 528404
Critical_IP_ROB_Stalls_Bucket_2: 70512
Non-critical_IP_ROB_Stalls_Bucket_2: 169381
Critical_IP_ROB_Stalls_Bucket_3: 12402
Non-critical_IP_ROB_Stalls_Bucket_3: 35287
Critical_IP_ROB_Stalls_Bucket_4: 5468
Non-critical_IP_ROB_Stalls_Bucket_4: 10414
Critical_IP_ROB_Stalls_Bucket_5: 5098
Non-critical_IP_ROB_Stalls_Bucket_5: 2605
Critical_IP_ROB_Stalls_Bucket_6: 15336
Non-critical_IP_ROB_Stalls_Bucket_6: 2023
0 => IPs accounting for >50 percent of stalls, 1 => 55, 2 => 60, 3 => 65 and so on till 90.
percent50: 50.0256 num IPs:  167
percent55: 55.0184 num IPs: 288
percent60: 60.019 num IPs: 468
percent65: 65.0088 num IPs: 718
percent70: 70.0086 num IPs: 1030
percent75: 75 num IPs: 1385
percent80: 80.0061 num IPs: 1837
percent85: 85.0027 num IPs: 2427
percent90: 90.0033 num IPs: 3102
Critical_ROB_Stalls_Percent_0_Bucket_0: 1194183
Non-critical_ROB_Stalls_Percent_0_Bucket_0: 1360624
Critical_ROB_Stalls_Percent_0_Bucket_1: 321177
Non-critical_ROB_Stalls_Percent_0_Bucket_1: 279691
Critical_ROB_Stalls_Percent_0_Bucket_2: 164227
Non-critical_ROB_Stalls_Percent_0_Bucket_2: 75666
Critical_ROB_Stalls_Percent_0_Bucket_3: 33461
Non-critical_ROB_Stalls_Percent_0_Bucket_3: 14228
Critical_ROB_Stalls_Percent_0_Bucket_4: 8818
Non-critical_ROB_Stalls_Percent_0_Bucket_4: 7064
Critical_ROB_Stalls_Percent_0_Bucket_5: 5645
Non-critical_ROB_Stalls_Percent_0_Bucket_5: 2058
Critical_ROB_Stalls_Percent_0_Bucket_6: 15482
Non-critical_ROB_Stalls_Percent_0_Bucket_6: 1877
Critical_ROB_Stalls_Percent_1_Bucket_0: 1281083
Non-critical_ROB_Stalls_Percent_1_Bucket_0: 1273724
Critical_ROB_Stalls_Percent_1_Bucket_1: 373033
Non-critical_ROB_Stalls_Percent_1_Bucket_1: 227835
Critical_ROB_Stalls_Percent_1_Bucket_2: 190079
Non-critical_ROB_Stalls_Percent_1_Bucket_2: 49814
Critical_ROB_Stalls_Percent_1_Bucket_3: 39546
Non-critical_ROB_Stalls_Percent_1_Bucket_3: 8143
Critical_ROB_Stalls_Percent_1_Bucket_4: 10855
Non-critical_ROB_Stalls_Percent_1_Bucket_4: 5027
Critical_ROB_Stalls_Percent_1_Bucket_5: 6371
Non-critical_ROB_Stalls_Percent_1_Bucket_5: 1332
Critical_ROB_Stalls_Percent_1_Bucket_6: 15984
Non-critical_ROB_Stalls_Percent_1_Bucket_6: 1375
Critical_ROB_Stalls_Percent_2_Bucket_0: 1405062
Non-critical_ROB_Stalls_Percent_2_Bucket_0: 1149745
Critical_ROB_Stalls_Percent_2_Bucket_1: 407565
Non-critical_ROB_Stalls_Percent_2_Bucket_1: 193303
Critical_ROB_Stalls_Percent_2_Bucket_2: 200607
Non-critical_ROB_Stalls_Percent_2_Bucket_2: 39286
Critical_ROB_Stalls_Percent_2_Bucket_3: 41466
Non-critical_ROB_Stalls_Percent_2_Bucket_3: 6223
Critical_ROB_Stalls_Percent_2_Bucket_4: 13575
Non-critical_ROB_Stalls_Percent_2_Bucket_4: 2307
Critical_ROB_Stalls_Percent_2_Bucket_5: 6765
Non-critical_ROB_Stalls_Percent_2_Bucket_5: 938
Critical_ROB_Stalls_Percent_2_Bucket_6: 16142
Non-critical_ROB_Stalls_Percent_2_Bucket_6: 1217
Critical_ROB_Stalls_Percent_3_Bucket_0: 1527759
Non-critical_ROB_Stalls_Percent_3_Bucket_0: 1027048
Critical_ROB_Stalls_Percent_3_Bucket_1: 446057
Non-critical_ROB_Stalls_Percent_3_Bucket_1: 154811
Critical_ROB_Stalls_Percent_3_Bucket_2: 210566
Non-critical_ROB_Stalls_Percent_3_Bucket_2: 29327
Critical_ROB_Stalls_Percent_3_Bucket_3: 43364
Non-critical_ROB_Stalls_Percent_3_Bucket_3: 4325
Critical_ROB_Stalls_Percent_3_Bucket_4: 14239
Non-critical_ROB_Stalls_Percent_3_Bucket_4: 1643
Critical_ROB_Stalls_Percent_3_Bucket_5: 6845
Non-critical_ROB_Stalls_Percent_3_Bucket_5: 858
Critical_ROB_Stalls_Percent_3_Bucket_6: 16206
Non-critical_ROB_Stalls_Percent_3_Bucket_6: 1153
Critical_ROB_Stalls_Percent_4_Bucket_0: 1665778
Non-critical_ROB_Stalls_Percent_4_Bucket_0: 889029
Critical_ROB_Stalls_Percent_4_Bucket_1: 476775
Non-critical_ROB_Stalls_Percent_4_Bucket_1: 124093
Critical_ROB_Stalls_Percent_4_Bucket_2: 215798
Non-critical_ROB_Stalls_Percent_4_Bucket_2: 24095
Critical_ROB_Stalls_Percent_4_Bucket_3: 43603
Non-critical_ROB_Stalls_Percent_4_Bucket_3: 4086
Critical_ROB_Stalls_Percent_4_Bucket_4: 14247
Non-critical_ROB_Stalls_Percent_4_Bucket_4: 1635
Critical_ROB_Stalls_Percent_4_Bucket_5: 6846
Non-critical_ROB_Stalls_Percent_4_Bucket_5: 857
Critical_ROB_Stalls_Percent_4_Bucket_6: 16206
Non-critical_ROB_Stalls_Percent_4_Bucket_6: 1153
Critical_ROB_Stalls_Percent_5_Bucket_0: 1797522
Non-critical_ROB_Stalls_Percent_5_Bucket_0: 757285
Critical_ROB_Stalls_Percent_5_Bucket_1: 511428
Non-critical_ROB_Stalls_Percent_5_Bucket_1: 89440
Critical_ROB_Stalls_Percent_5_Bucket_2: 222292
Non-critical_ROB_Stalls_Percent_5_Bucket_2: 17601
Critical_ROB_Stalls_Percent_5_Bucket_3: 44185
Non-critical_ROB_Stalls_Percent_5_Bucket_3: 3504
Critical_ROB_Stalls_Percent_5_Bucket_4: 14289
Non-critical_ROB_Stalls_Percent_5_Bucket_4: 1593
Critical_ROB_Stalls_Percent_5_Bucket_5: 6889
Non-critical_ROB_Stalls_Percent_5_Bucket_5: 814
Critical_ROB_Stalls_Percent_5_Bucket_6: 16553
Non-critical_ROB_Stalls_Percent_5_Bucket_6: 806
Critical_ROB_Stalls_Percent_6_Bucket_0: 1945331
Non-critical_ROB_Stalls_Percent_6_Bucket_0: 609476
Critical_ROB_Stalls_Percent_6_Bucket_1: 532211
Non-critical_ROB_Stalls_Percent_6_Bucket_1: 68657
Critical_ROB_Stalls_Percent_6_Bucket_2: 226932
Non-critical_ROB_Stalls_Percent_6_Bucket_2: 12961
Critical_ROB_Stalls_Percent_6_Bucket_3: 45067
Non-critical_ROB_Stalls_Percent_6_Bucket_3: 2622
Critical_ROB_Stalls_Percent_6_Bucket_4: 14467
Non-critical_ROB_Stalls_Percent_6_Bucket_4: 1415
Critical_ROB_Stalls_Percent_6_Bucket_5: 6932
Non-critical_ROB_Stalls_Percent_6_Bucket_5: 771
Critical_ROB_Stalls_Percent_6_Bucket_6: 16639
Non-critical_ROB_Stalls_Percent_6_Bucket_6: 720
Critical_ROB_Stalls_Percent_7_Bucket_0: 2095549
Non-critical_ROB_Stalls_Percent_7_Bucket_0: 459258
Critical_ROB_Stalls_Percent_7_Bucket_1: 551026
Non-critical_ROB_Stalls_Percent_7_Bucket_1: 49842
Critical_ROB_Stalls_Percent_7_Bucket_2: 231623
Non-critical_ROB_Stalls_Percent_7_Bucket_2: 8270
Critical_ROB_Stalls_Percent_7_Bucket_3: 45330
Non-critical_ROB_Stalls_Percent_7_Bucket_3: 2359
Critical_ROB_Stalls_Percent_7_Bucket_4: 14525
Non-critical_ROB_Stalls_Percent_7_Bucket_4: 1357
Critical_ROB_Stalls_Percent_7_Bucket_5: 6970
Non-critical_ROB_Stalls_Percent_7_Bucket_5: 733
Critical_ROB_Stalls_Percent_7_Bucket_6: 16655
Non-critical_ROB_Stalls_Percent_7_Bucket_6: 704
Critical_ROB_Stalls_Percent_8_Bucket_0: 2249408
Non-critical_ROB_Stalls_Percent_8_Bucket_0: 305399
Critical_ROB_Stalls_Percent_8_Bucket_1: 568375
Non-critical_ROB_Stalls_Percent_8_Bucket_1: 32493
Critical_ROB_Stalls_Percent_8_Bucket_2: 233622
Non-critical_ROB_Stalls_Percent_8_Bucket_2: 6271
Critical_ROB_Stalls_Percent_8_Bucket_3: 45931
Non-critical_ROB_Stalls_Percent_8_Bucket_3: 1758
Critical_ROB_Stalls_Percent_8_Bucket_4: 14962
Non-critical_ROB_Stalls_Percent_8_Bucket_4: 920
Critical_ROB_Stalls_Percent_8_Bucket_5: 6975
Non-critical_ROB_Stalls_Percent_8_Bucket_5: 728
Critical_ROB_Stalls_Percent_8_Bucket_6: 16659
Non-critical_ROB_Stalls_Percent_8_Bucket_6: 700
Average ROB occupancy Load Stall Begin: 34.7594
Average ROB occupancy Load Stall End: 42.6788
Min ROB occupancy Load Stall Begin: 1
Max ROB occupancy Load Stall Begin: 352
Min ROB occupancy Load Stall End: 1
Max ROB occupancy Load Stall End: 352
Average ROB occupancy Critical Load Stall Begin: 38.099
Average ROB occupancy Critical Load Stall End: 45.2804
Min ROB occupancy Critical Load Stall Begin: 3
Max ROB occupancy Critical Load Stall Begin: 352
Min ROB occupancy Critical Load Stall End: 3
Max ROB occupancy Critical Load Stall End: 352
 ROB Load Stall Begin Bucket Count 0: 2752479
 ROB Load Stall End Bucket Count 0: 2554807
 ROB Critical Load Stall Begin Bucket Count 0: 611547
 ROB Critical Load Stall End Bucket Count 0: 604938
 ROB Load Stall Begin Bucket Count 1: 481476
 ROB Load Stall End Bucket Count 1: 600868
 ROB Critical Load Stall Begin Bucket Count 1: 80357
 ROB Critical Load Stall End Bucket Count 1: 71177
 ROB Load Stall Begin Bucket Count 2: 180881
 ROB Load Stall End Bucket Count 2: 239893
 ROB Critical Load Stall Begin Bucket Count 2: 58061
 ROB Critical Load Stall End Bucket Count 2: 69094
 ROB Load Stall Begin Bucket Count 3: 33001
 ROB Load Stall End Bucket Count 3: 47689
 ROB Critical Load Stall Begin Bucket Count 3: 8112
 ROB Critical Load Stall End Bucket Count 3: 12308
 ROB Load Stall Begin Bucket Count 4: 12821
 ROB Load Stall End Bucket Count 4: 15882
 ROB Critical Load Stall Begin Bucket Count 4: 5321
 ROB Critical Load Stall End Bucket Count 4: 5458
 ROB Load Stall Begin Bucket Count 5: 7014
 ROB Load Stall End Bucket Count 5: 7703
 ROB Critical Load Stall Begin Bucket Count 5: 5086
 ROB Critical Load Stall End Bucket Count 5: 5090
 ROB Load Stall Begin Bucket Count 6: 16530
 ROB Load Stall End Bucket Count 6: 17359
 ROB Critical Load Stall Begin Bucket Count 6: 14813
 ROB Critical Load Stall End Bucket Count 6: 15232
PIST Tag Read Accesses: 1942970
PIST Read Accesses: 971485
PIST Tag Write Accesses: 1942970
PIST Write Accesses: 971485
Criticality detector called times: 2700904
Max global_stall_cycles_count: 2011091
Threshold Modified: 1 times, factor: -1
Sturdy critical IP cache stats: 
 Unused entries: 0
CIC Tag Read Accesses: 0
CIC Read Accesses: 0
CIC Tag Write Accesses: 0
CIC Write Accesses: 0
Wobbly critical IP cache stats: 
 Unused entries: 110
CIC Tag Read Accesses: 78951971
CIC Read Accesses: 0
CIC Tag Write Accesses: 20
CIC Write Accesses: 0
ITLB TOTAL     ACCESS:   10308276  HIT:    9793838  MISS:     514438  HIT %:    95.0095  MISS %:    4.99053   MPKI: 10.2888
ITLB LOAD TRANSLATION ACCESS:    8797357  HIT:    8721282  MISS:      76075  HIT %:    99.1353  MISS %:   0.864748   MPKI: 1.5215
ITLB TRANSLATION FROM L1D PREFETCHER ACCESS:    1510919  HIT:    1072556  MISS:     438363  HIT %:     70.987  MISS %:     29.013   MPKI: 8.76726
ITLBprefetch_cycle_count: 0 prefetches_per_prefetch_cycle: -nan
ITLB PREFETCH  REQUESTED:          0  ISSUED:          0  USEFUL:     344539  USELESS:      93829
ITLB USEFUL LOAD PREFETCHES:     344539 PREFETCH ISSUED TO LOWER LEVEL:          0  ACCURACY: inf
ITLB TIMELY PREFETCHES:     344539 LATE PREFETCHES: 227 DROPPED PREFETCHES: 3035
ITLB PREFETCHES SAME FILL-ORIGIN LEVEL: 0 DIFFERENT FILL-ORIGIN LEVEL: 0
ITLB AVERAGE MISS LATENCY: 25124.7 cycles
ITLB RQ	ACCESS:   14205287	FORWARD:          0	MERGED:    3861553	TO_CACHE:   10343734

DTLB TOTAL     ACCESS:   10186226  HIT:    9802598  MISS:     383628  HIT %:    96.2339  MISS %:    3.76614   MPKI: 7.67256
DTLB LOAD TRANSLATION ACCESS:   10186226  HIT:    9802598  MISS:     383628  HIT %:    96.2339  MISS %:    3.76614   MPKI: 7.67256
DTLBprefetch_cycle_count: 0 prefetches_per_prefetch_cycle: -nan
DTLB PREFETCH  REQUESTED:          0  ISSUED:          0  USEFUL:          0  USELESS:          0
DTLB USEFUL LOAD PREFETCHES:          0 PREFETCH ISSUED TO LOWER LEVEL:          0  ACCURACY: -nan
DTLB TIMELY PREFETCHES:          0 LATE PREFETCHES: 0 DROPPED PREFETCHES: 0
DTLB PREFETCHES SAME FILL-ORIGIN LEVEL: 0 DIFFERENT FILL-ORIGIN LEVEL: 0
DTLB AVERAGE MISS LATENCY: 9.37658 cycles
DTLB RQ	ACCESS:   13094078	FORWARD:          0	MERGED:    2885747	TO_CACHE:   10208331

STLB TOTAL     ACCESS:     898066  HIT:     896028  MISS:       2038  HIT %:    99.7731  MISS %:   0.226932   MPKI: 0.04076
STLB LOAD TRANSLATION ACCESS:     459476  HIT:     457581  MISS:       1895  HIT %:    99.5876  MISS %:   0.412426   MPKI: 0.0379
STLB TRANSLATION FROM L1D PREFETCHER ACCESS:     438590  HIT:     438447  MISS:        143  HIT %:    99.9674  MISS %:  0.0326045   MPKI: 0.00286
STLBprefetch_cycle_count: 0 prefetches_per_prefetch_cycle: -nan
STLB PREFETCH  REQUESTED:          0  ISSUED:          0  USEFUL:        127  USELESS:         16
STLB USEFUL LOAD PREFETCHES:        127 PREFETCH ISSUED TO LOWER LEVEL:          0  ACCURACY: inf
STLB TIMELY PREFETCHES:        127 LATE PREFETCHES: 0 DROPPED PREFETCHES: 3035
STLB PREFETCHES SAME FILL-ORIGIN LEVEL: 0 DIFFERENT FILL-ORIGIN LEVEL: 0
STLB AVERAGE MISS LATENCY: 74.7409 cycles
STLB RQ	ACCESS:     901101	FORWARD:          0	MERGED:          0	TO_CACHE:     901101

STLB Hit, L1D data hit: 0
STLB Hit, L2C data hit: 0
STLB Hit, LLC data hit: 0
STLB Hit, LLC data miss: 0
STLB STLB hints to L2: 0
L1D TOTAL     ACCESS:   12694024  HIT:   11865526  MISS:     828498  HIT %:    93.4733  MISS %:    6.52668   MPKI: 16.57
L1D LOAD      ACCESS:    7420184  HIT:    6819240  MISS:     600944  HIT %:    91.9012  MISS %:    8.09877   MPKI: 12.0189
L1D RFO       ACCESS:    5273840  HIT:    5046286  MISS:     227554  HIT %:    95.6852  MISS %:    4.31477   MPKI: 4.55108
L1Dprefetch_cycle_count: 0 prefetches_per_prefetch_cycle: -nan
L1D PREFETCH  REQUESTED:          0  ISSUED:          0  USEFUL:          0  USELESS:          0
L1D USEFUL LOAD PREFETCHES:          0 PREFETCH ISSUED TO LOWER LEVEL:          0  ACCURACY: -nan
L1D TIMELY PREFETCHES:          0 LATE PREFETCHES: 0 DROPPED PREFETCHES: 0
L1D PREFETCHES SAME FILL-ORIGIN LEVEL: 0 DIFFERENT FILL-ORIGIN LEVEL: 0
L1D AVERAGE MISS LATENCY: 25.5062 cycles
L1D RQ	ACCESS:   10334121	FORWARD:          0	MERGED:    2774654	TO_CACHE:    7451637
L1D WQ	ACCESS:    5697707	FORWARD:     107830	MERGED:      55266	TO_CACHE:    5642441

L1D UNIQUE REGIONS ACCESSED: 0
L1D REGIONS CONFLICTS: 0
L1D Cross Page Prefetch Requests: 0
L1D Same Page Prefetch Requests: 0
L1D ROI Sum of L1D PQ occupancy: 0
L1D PREFETCHES PUSHED FROM L2C: 0
L1I TOTAL     ACCESS:   14078516  HIT:   10957819  MISS:    3120697  HIT %:    77.8336  MISS %:    22.1664   MPKI: 62.4139
L1I LOAD      ACCESS:    9938863  HIT:    9708209  MISS:     230654  HIT %:    97.6793  MISS %:    2.32073   MPKI: 4.61308
L1I PREFETCH  ACCESS:    4139653  HIT:    1249610  MISS:    2890043  HIT %:    30.1863  MISS %:    69.8137   MPKI: 57.8009
L1Iprefetch_cycle_count: 0 prefetches_per_prefetch_cycle: inf
L1I PREFETCH  REQUESTED:    4346524  ISSUED:    4338620  USEFUL:    1949576  USELESS:     940414
L1I USEFUL LOAD PREFETCHES:    1949576 PREFETCH ISSUED TO LOWER LEVEL:    2917785  ACCURACY: 66.817
L1I TIMELY PREFETCHES:    1949576 LATE PREFETCHES: 27741 DROPPED PREFETCHES: 7153
L1I PREFETCHES SAME FILL-ORIGIN LEVEL: 2917785 DIFFERENT FILL-ORIGIN LEVEL: 0
L1I AVERAGE MISS LATENCY: 532552 cycles
L1I RQ	ACCESS:   13365041	FORWARD:          0	MERGED:    3405075	TO_CACHE:    9959966
L1I PQ	ACCESS:    4338620	FORWARD:          0	MERGED:      93299	TO_CACHE:    4245321

BTB TOTAL     ACCESS:    6534034  HIT:    5095597  MISS:    1438437  HIT %:    77.9855  MISS %:    22.0145   MPKI: 28.7687
BTB BRANCH_DIRECT_JUMP	ACCESS:     487044  HIT:     364834  MISS:     122210
BTB BRANCH_INDIRECT	ACCESS:     169158  HIT:     142414  MISS:      26744
BTB BRANCH_CONDITIONAL	ACCESS:    4098719  HIT:    3717570  MISS:     381149
BTB BRANCH_DIRECT_CALL	ACCESS:     755585  HIT:     471450  MISS:     284135
BTB BRANCH_INDIRECT_CALL	ACCESS:     133962  HIT:      76124  MISS:      57838
BTB BRANCH_RETURN	ACCESS:     889566  HIT:     323205  MISS:     566361
BTB BRANCH_OTHER ACCESS:          0  HIT:          0  MISS:          0

L2C TOTAL     ACCESS:    4345139  HIT:    3918969  MISS:     426170  HIT %:     90.192  MISS %:    9.80797   MPKI: 8.5234
L2C LOAD      ACCESS:     803814  HIT:     665442  MISS:     138372  HIT %:    82.7856  MISS %:    17.2144   MPKI: 2.76744
L2C DATA LOAD MPKI: 2.19376
L2C INSTRUCTION LOAD MPKI: 0.57368
L2C RFO       ACCESS:     227550  HIT:     177498  MISS:      50052  HIT %:     78.004  MISS %:     21.996   MPKI: 1.00104
L2C PREFETCH  ACCESS:    2919975  HIT:    2702033  MISS:     217942  HIT %:    92.5362  MISS %:    7.46383   MPKI: 4.35884
L2C DATA PREFETCH MPKI: 0.02578
L2C INSTRUCTION PREFETCH MPKI: 4.33306
L2C WRITEBACK ACCESS:     386389  HIT:     368371  MISS:      18018  HIT %:    95.3368  MISS %:    4.66318   MPKI: 0.36036
L2C LOAD TRANSLATION ACCESS:       2122  HIT:        593  MISS:       1529  HIT %:    27.9453  MISS %:    72.0547   MPKI: 0.03058
L2C TRANSLATION FROM L1D PREFETCHER ACCESS:       5289  HIT:       5032  MISS:        257  HIT %:    95.1409  MISS %:    4.85914   MPKI: 0.00514
L2Cprefetch_cycle_count: 1063 prefetches_per_prefetch_cycle: 2.26152
L2C PREFETCH  REQUESTED:       2404  ISSUED:       2404  USEFUL:       7762  USELESS:     209125
L2C USEFUL LOAD PREFETCHES:       7762 PREFETCH ISSUED TO LOWER LEVEL:     218048  ACCURACY: 3.55977
L2C TIMELY PREFETCHES:       7762 LATE PREFETCHES: 105 DROPPED PREFETCHES: 0
L2C PREFETCHES SAME FILL-ORIGIN LEVEL: 1394 DIFFERENT FILL-ORIGIN LEVEL: 0
L2C AVERAGE MISS LATENCY: 38.2766 cycles
L2C RQ	ACCESS:    1038822	FORWARD:          0	MERGED:          0	TO_CACHE:    1038775
L2C WQ	ACCESS:     386389	FORWARD:         47	MERGED:          0	TO_CACHE:     386389
L2C PQ	ACCESS:    2920189	FORWARD:          0	MERGED:          0	TO_CACHE:    2920189

L2C Instructions Evicting Data 97907
L2C Translations Evicting Data 1112
L2C Data Evicting Data 74468
L2C Instructions Evicting Instructions 146732
L2C Translations Evicting Instructions 655
L2C Data Evicting Instructions 85484
L2C Instructions Evicting Translations 698
L2C Translations Evicting Translations 19
L2C Data Evicting Translations 1077
L2C Dense regions hint from L2: 0
PSCL5 TOTAL     ACCESS:       5073  HIT:       5073  MISS:          0  HIT %:        100  MISS %:          0   MPKI: 0
PSCL5 LOAD TRANSLATION ACCESS:       1895  HIT:       1895  MISS:          0  HIT %:        100  MISS %:          0   MPKI: 0
PSCL5 TRANSLATION FROM L1D PREFETCHER ACCESS:       3178  HIT:       3178  MISS:          0  HIT %:        100  MISS %:          0   MPKI: 0
PSCL5prefetch_cycle_count: 0 prefetches_per_prefetch_cycle: -nan
PSCL5 PREFETCH  REQUESTED:          0  ISSUED:          0  USEFUL:          0  USELESS:          0
PSCL5 USEFUL LOAD PREFETCHES:          0 PREFETCH ISSUED TO LOWER LEVEL:          0  ACCURACY: -nan
PSCL5 TIMELY PREFETCHES:          0 LATE PREFETCHES: 0 DROPPED PREFETCHES: 0
PSCL5 PREFETCHES SAME FILL-ORIGIN LEVEL: 0 DIFFERENT FILL-ORIGIN LEVEL: 0

PSCL4 TOTAL     ACCESS:       4760  HIT:       4748  MISS:         12  HIT %:    99.7479  MISS %:   0.252101   MPKI: 0.00024
PSCL4 LOAD TRANSLATION ACCESS:       1676  HIT:       1664  MISS:         12  HIT %:     99.284  MISS %:    0.71599   MPKI: 0.00024
PSCL4 TRANSLATION FROM L1D PREFETCHER ACCESS:       3084  HIT:       3084  MISS:          0  HIT %:        100  MISS %:          0   MPKI: 0
PSCL4prefetch_cycle_count: 0 prefetches_per_prefetch_cycle: -nan
PSCL4 PREFETCH  REQUESTED:          0  ISSUED:          0  USEFUL:          0  USELESS:          0
PSCL4 USEFUL LOAD PREFETCHES:          0 PREFETCH ISSUED TO LOWER LEVEL:          0  ACCURACY: -nan
PSCL4 TIMELY PREFETCHES:          0 LATE PREFETCHES: 0 DROPPED PREFETCHES: 0
PSCL4 PREFETCHES SAME FILL-ORIGIN LEVEL: 0 DIFFERENT FILL-ORIGIN LEVEL: 0

PSCL3 TOTAL     ACCESS:       4935  HIT:       4923  MISS:         12  HIT %:    99.7568  MISS %:   0.243161   MPKI: 0.00024
PSCL3 LOAD TRANSLATION ACCESS:       1851  HIT:       1839  MISS:         12  HIT %:    99.3517  MISS %:   0.648298   MPKI: 0.00024
PSCL3 TRANSLATION FROM L1D PREFETCHER ACCESS:       3084  HIT:       3084  MISS:          0  HIT %:        100  MISS %:          0   MPKI: 0
PSCL3prefetch_cycle_count: 0 prefetches_per_prefetch_cycle: -nan
PSCL3 PREFETCH  REQUESTED:          0  ISSUED:          0  USEFUL:          0  USELESS:          0
PSCL3 USEFUL LOAD PREFETCHES:          0 PREFETCH ISSUED TO LOWER LEVEL:          0  ACCURACY: -nan
PSCL3 TIMELY PREFETCHES:          0 LATE PREFETCHES: 0 DROPPED PREFETCHES: 0
PSCL3 PREFETCHES SAME FILL-ORIGIN LEVEL: 0 DIFFERENT FILL-ORIGIN LEVEL: 0

PSCL2 TOTAL     ACCESS:       3131  HIT:       2891  MISS:        240  HIT %:    92.3347  MISS %:    7.66528   MPKI: 0.0048
PSCL2 LOAD TRANSLATION ACCESS:       1926  HIT:       1686  MISS:        240  HIT %:    87.5389  MISS %:    12.4611   MPKI: 0.0048
PSCL2 TRANSLATION FROM L1D PREFETCHER ACCESS:       1205  HIT:       1205  MISS:          0  HIT %:        100  MISS %:          0   MPKI: 0
PSCL2prefetch_cycle_count: 0 prefetches_per_prefetch_cycle: -nan
PSCL2 PREFETCH  REQUESTED:          0  ISSUED:          0  USEFUL:          0  USELESS:          0
PSCL2 USEFUL LOAD PREFETCHES:          0 PREFETCH ISSUED TO LOWER LEVEL:          0  ACCURACY: -nan
PSCL2 TIMELY PREFETCHES:          0 LATE PREFETCHES: 0 DROPPED PREFETCHES: 0
PSCL2 PREFETCHES SAME FILL-ORIGIN LEVEL: 0 DIFFERENT FILL-ORIGIN LEVEL: 0

LLC TOTAL     ACCESS:     480923  HIT:     454990  MISS:      25933  HIT %:    94.6077  MISS %:    5.39234   MPKI: 0.51866
LLC LOAD      ACCESS:     138265  HIT:     127902  MISS:      10363  HIT %:     92.505  MISS %:    7.49503   MPKI: 0.20726
LLC RFO       ACCESS:      50052  HIT:      35581  MISS:      14471  HIT %:    71.0881  MISS %:    28.9119   MPKI: 0.28942
LLC PREFETCH  ACCESS:     218047  HIT:     217379  MISS:        668  HIT %:    99.6936  MISS %:   0.306356   MPKI: 0.01336
LLC WRITEBACK ACCESS:      72773  HIT:      72460  MISS:        313  HIT %:    99.5699  MISS %:   0.430105   MPKI: 0.00626
LLC LOAD TRANSLATION ACCESS:       1529  HIT:       1425  MISS:        104  HIT %:    93.1982  MISS %:    6.80183   MPKI: 0.00208
LLC TRANSLATION FROM L1D PREFETCHER ACCESS:        257  HIT:        243  MISS:         14  HIT %:    94.5525  MISS %:    5.44747   MPKI: 0.00028
LLCprefetch_cycle_count: 0 prefetches_per_prefetch_cycle: -nan
LLC PREFETCH  REQUESTED:          0  ISSUED:          0  USEFUL:         64  USELESS:        558
LLC USEFUL LOAD PREFETCHES:         64 PREFETCH ISSUED TO LOWER LEVEL:        668  ACCURACY: 9.58084
LLC TIMELY PREFETCHES:         64 LATE PREFETCHES: 0 DROPPED PREFETCHES: 0
LLC PREFETCHES SAME FILL-ORIGIN LEVEL: 0 DIFFERENT FILL-ORIGIN LEVEL: 0
LLC AVERAGE MISS LATENCY: 155.875 cycles
LLC RQ	ACCESS:     190105	FORWARD:          0	MERGED:          0	TO_CACHE:     190103
LLC WQ	ACCESS:      72773	FORWARD:          2	MERGED:          0	TO_CACHE:      72773
LLC PQ	ACCESS:     218048	FORWARD:          0	MERGED:          0	TO_CACHE:     218048

LLC Dense regions hint to LLC: 0

RAW hits: 798189
Loads Generated: 11132312
Loads sent to L1D: 10334121
Stores Generated: 5697707
Stores sent to L1D: 5697707
Major fault: 0 Minor fault: 2472
Allocated PAGES: 2472
I-Shadow cache 408 bytes
Touched + WorthPF tables 6144 bytes 
MMA filter 174 bytes 
FNL filter 272 bytes 
TOTAL PREFETCHER STORAGE SIZE: 25174 bytes
CPU 0 L1I next line prefetcher final stats
total_pref_operate_instances_l2: 2659001
dynamic_config_counter_instances_l2_1: 2637337
dynamic_config_counter_instances_l2_2: 16343
dynamic_config_counter_instances_l2_3: 5321
dynamic_config_counter_instances_l2_4: 0
dynamic_config_counter_instances_l2_5: 0
[Bingo] PHT Access: 1158
[Bingo] PHT Hit PC+Addr: 968
[Bingo] PHT Hit PC+Offs: 95
[Bingo] PHT Miss: 95
[Bingo] Prefetch PC+Addr: 0
[Bingo] Prefetch PC+Offs: 0
[Bingo] Useful PC+Addr: 0
[Bingo] Useful PC+Offs: 0
[Bingo] Useless PC+Addr: 0
[Bingo] Useless PC+Offs: 0
[Bingo] L1 Prefetch per Region: 0
[Bingo] L2 Prefetch per Region: 4.66228
[Bingo] L3 Prefetch per Region: 0
[Bingo] No Prefetch per Region: 27.3377
[Bingo] Number of Voters Mean: 12.2526
[Bingo] Number of Voters SD: 6.30617
PHT read accesses: 3154
PHT write accesses: 475
AT read accesses: 4882
AT write accesses: 4861
FT read accesses: 3998
FT write accesses: 1158
PS read accesses: 2127
PS write accesses: 1063
PHT tag read accesses: 13632
PHT tag write accesses: 1443
AT tag read accesses: 6938203
AT tag write accesses: 5336
FT tag read accesses: 6887287
FT tag write accesses: 3752
PS tag read accesses: 139319
PS tag write accesses: 3190

DRAM Statistics
 CHANNEL 0
 RQ ROW_BUFFER_HIT:       9355  ROW_BUFFER_MISS:      16261
 DBUS_CONGESTED:          3
 WQ ROW_BUFFER_HIT:       1381  ROW_BUFFER_MISS:      12123  FULL:          0

 AVG_CONGESTED_CYCLE: 4
 All warmup complete: 2
Channel 0 Bank busy for read cycles: 0
Channel 0 Bank busy for write cycles: 0
Channel 0
Rank 0
0banks busy for read cycles: 75316326
0banks busy for write cycles: 3133
1banks busy for read cycles: 1292378
1banks busy for write cycles: 443731
2banks busy for read cycles: 135569
2banks busy for write cycles: 148205
3banks busy for read cycles: 49017
3banks busy for write cycles: 97482
4banks busy for read cycles: 27715
4banks busy for write cycles: 93116
5banks busy for read cycles: 22326
5banks busy for write cycles: 75024
6banks busy for read cycles: 26032
6banks busy for write cycles: 78115
7banks busy for read cycles: 30924
7banks busy for write cycles: 61266
8banks busy for read cycles: 76637
8banks busy for write cycles: 92115

CPU 0 Branch Prediction Accuracy: 99.7225% MPKI: 0.50376 Average ROB Occupancy at Mispredict: 59.8048
Branch types
NOT_BRANCH: 40923872 81.8477%
BRANCH_DIRECT_JUMP: 487044 0.974088%
BRANCH_INDIRECT: 169158 0.338316%
BRANCH_CONDITIONAL: 6640823 13.2816%
BRANCH_DIRECT_CALL: 755585 1.51117%
BRANCH_INDIRECT_CALL: 133962 0.267924%
BRANCH_RETURN: 889566 1.77913%
BRANCH_OTHER: 0 0%

DRAM PAGES: 1048576
Allocated PAGES: 2472
