
*** ChampSim Multicore Out-of-Order Simulator ***

Warmup Instructions: 50000000
Simulation Instructions: 50000000
Number of CPUs: 1
LLC sets: 2048
LLC ways: 16
Off-chip DRAM Size: 4096 MB Channels: 1 Width: 64-bit Data Rate: 6400 MT/s
CPU 0 runs ../IPC-traces//server_033.champsimtrace.xz
.xz
NUM_OF_IPS_IN_CRITICAL_IP_TRAINING: 64
NUM_OF_CRITICAL_IP_TRAINING_TABLE_WAYS: 2
NUM_OF_CRITICAL_IP_TRAINING_TABLE_SETS: 32
WOBBLY_CRITICAL_IP_CACHE_SETS: 32
WOBBLY_CRITICAL_IP_CACHE_WAYS: 4
BTB has LRU replacement policy
ITLB has LRU replacement policy
DTLB has LRU replacement policy
STLB has LRU replacement policy
CPU 0 L1I next line prefetcher
L1I has LRU replacement policy
IP Table Entries: 64
L1D has LRU replacement policy
Initialize SRRIP state for L2C
Initialize DRRIP state for LLC
Heartbeat CPU 0 instructions: 10000001 cycles: 2764954 heartbeat IPC: 3.6167 cumulative IPC: 3.6167 (Simulation time: 0 hr 4 min 40 sec) 
Heartbeat CPU 0 instructions: 20000002 cycles: 5524608 heartbeat IPC: 3.62364 cumulative IPC: 3.62017 (Simulation time: 0 hr 9 min 10 sec) 
Heartbeat CPU 0 instructions: 30000003 cycles: 8286210 heartbeat IPC: 3.62109 cumulative IPC: 3.62047 (Simulation time: 0 hr 13 min 4 sec) 
Heartbeat CPU 0 instructions: 40000000 cycles: 11052269 heartbeat IPC: 3.61525 cumulative IPC: 3.61917 (Simulation time: 0 hr 17 min 2 sec) 
Heartbeat CPU 0 instructions: 50000000 cycles: 13819264 heartbeat IPC: 3.61403 cumulative IPC: 3.61814 (Simulation time: 0 hr 20 min 47 sec) 

Warmup complete CPU 0 instructions: 50000004 cycles: 13819265 (Simulation time: 0 hr 20 min 47 sec) 

% increase in all ip prefetch 330.507
% increase in all ip prefetch -2.54759
Heartbeat CPU 0 instructions: 60000003 cycles: 26723011 heartbeat IPC: 0.774969 cumulative IPC: 0.774969 (Simulation time: 0 hr 24 min 8 sec) 
Heartbeat CPU 0 instructions: 70000000 cycles: 39543101 heartbeat IPC: 0.780025 cumulative IPC: 0.777489 (Simulation time: 0 hr 27 min 36 sec) 
Heartbeat CPU 0 instructions: 80000000 cycles: 53155022 heartbeat IPC: 0.73465 cumulative IPC: 0.762665 (Simulation time: 0 hr 31 min 2 sec) 
Heartbeat CPU 0 instructions: 90000003 cycles: 66191754 heartbeat IPC: 0.767064 cumulative IPC: 0.76376 (Simulation time: 0 hr 34 min 23 sec) 
Heartbeat CPU 0 instructions: 100000000 cycles: 79054473 heartbeat IPC: 0.77744 cumulative IPC: 0.766457 (Simulation time: 0 hr 38 min 40 sec) 
Finished CPU 0 instructions: 50000000 cycles: 65235221 cumulative IPC: 0.766457 (Simulation time: 0 hr 38 min 40 sec) 

ChampSim completed all CPUs

Region of Interest Statistics

CPU 0 cumulative IPC: 0.766457 instructions: 50000000 cycles: 65235221

CPU 0 Average Load ROB stall cycles: 1.69041e+07
CPU 0 Fraction of times ROB stalled by Loads: 36.4681
CPU 0 Percentage of Load stall cycles in Total stall cycles: 2.42375e+08
Issued all: 26522011
Issued LT all: 20743460
rob_not_full_when_issued_lt_all: 20226131
Issued LT one: 15656218
rob_not_full_when_issued_lt_one: 15187451
 Total stall cycles: 53274253
 Total load stall cycles: 129123520020666
CPU 0 NUM of IPS identified critical: 0
CPU 0 Num of Load IPs stalling ROB: 7003
Threshold modification factor: -1
Max PIST entries: 64
Min PIST entries: 0
Avg PIST entries: 32
Trouble in retire width: 0.860355
MaC = Marked as critical.
lt_50_percent_before_Mac: 0
gt_90_percent_before_Mac: 0
gt_75_percent_before_Mac: 0
gt_50_percent_before_Mac: 0
stall_proportion_bin_same_before_after: 0
stall_proportion_bin_lower_before_after: 0
stall_proportion_bin_upper_before_after: 0
average_stall_proportion_before: -nan
average_stall_proportion_after: -nan
Critical IP stalls, total frequency: 0
Non-critical IP stalls, total frequency: 2785660
Total Freq all stalling IPs: 2785660
stat_90_percent_critical_ip_stalls_freq: 2507517
stat_90_percent_non_critical_ip_stalls_freq: 278143
Critical_IP_ROB_Stalls_Bucket_0: 0
Non-critical_IP_ROB_Stalls_Bucket_0: 1519290
Critical_IP_ROB_Stalls_Bucket_1: 0
Non-critical_IP_ROB_Stalls_Bucket_1: 852738
Critical_IP_ROB_Stalls_Bucket_2: 0
Non-critical_IP_ROB_Stalls_Bucket_2: 298990
Critical_IP_ROB_Stalls_Bucket_3: 0
Non-critical_IP_ROB_Stalls_Bucket_3: 81400
Critical_IP_ROB_Stalls_Bucket_4: 0
Non-critical_IP_ROB_Stalls_Bucket_4: 13632
Critical_IP_ROB_Stalls_Bucket_5: 0
Non-critical_IP_ROB_Stalls_Bucket_5: 2689
Critical_IP_ROB_Stalls_Bucket_6: 0
Non-critical_IP_ROB_Stalls_Bucket_6: 16921
0 => IPs accounting for >50 percent of stalls, 1 => 55, 2 => 60, 3 => 65 and so on till 90.
percent50: 50.0185 num IPs:  351
percent55: 55.0315 num IPs: 451
percent60: 60.026 num IPs: 551
percent65: 65.0081 num IPs: 651
percent70: 70.0325 num IPs: 753
percent75: 75.0446 num IPs: 857
percent80: 80.0355 num IPs: 965
percent85: 85.0062 num IPs: 1083
percent90: 90.0151 num IPs: 1235
Critical_ROB_Stalls_Percent_0_Bucket_0: 805295
Non-critical_ROB_Stalls_Percent_0_Bucket_0: 713995
Critical_ROB_Stalls_Percent_0_Bucket_1: 403942
Non-critical_ROB_Stalls_Percent_0_Bucket_1: 448796
Critical_ROB_Stalls_Percent_0_Bucket_2: 145507
Non-critical_ROB_Stalls_Percent_0_Bucket_2: 153483
Critical_ROB_Stalls_Percent_0_Bucket_3: 26685
Non-critical_ROB_Stalls_Percent_0_Bucket_3: 54715
Critical_ROB_Stalls_Percent_0_Bucket_4: 6352
Non-critical_ROB_Stalls_Percent_0_Bucket_4: 7280
Critical_ROB_Stalls_Percent_0_Bucket_5: 878
Non-critical_ROB_Stalls_Percent_0_Bucket_5: 1811
Critical_ROB_Stalls_Percent_0_Bucket_6: 4686
Non-critical_ROB_Stalls_Percent_0_Bucket_6: 12235
Critical_ROB_Stalls_Percent_1_Bucket_0: 864139
Non-critical_ROB_Stalls_Percent_1_Bucket_0: 655151
Critical_ROB_Stalls_Percent_1_Bucket_1: 460974
Non-critical_ROB_Stalls_Percent_1_Bucket_1: 391764
Critical_ROB_Stalls_Percent_1_Bucket_2: 159925
Non-critical_ROB_Stalls_Percent_1_Bucket_2: 139065
Critical_ROB_Stalls_Percent_1_Bucket_3: 35387
Non-critical_ROB_Stalls_Percent_1_Bucket_3: 46013
Critical_ROB_Stalls_Percent_1_Bucket_4: 6779
Non-critical_ROB_Stalls_Percent_1_Bucket_4: 6853
Critical_ROB_Stalls_Percent_1_Bucket_5: 1007
Non-critical_ROB_Stalls_Percent_1_Bucket_5: 1682
Critical_ROB_Stalls_Percent_1_Bucket_6: 4783
Non-critical_ROB_Stalls_Percent_1_Bucket_6: 12138
Critical_ROB_Stalls_Percent_2_Bucket_0: 910288
Non-critical_ROB_Stalls_Percent_2_Bucket_0: 609002
Critical_ROB_Stalls_Percent_2_Bucket_1: 509937
Non-critical_ROB_Stalls_Percent_2_Bucket_1: 342801
Critical_ROB_Stalls_Percent_2_Bucket_2: 193519
Non-critical_ROB_Stalls_Percent_2_Bucket_2: 105471
Critical_ROB_Stalls_Percent_2_Bucket_3: 44570
Non-critical_ROB_Stalls_Percent_2_Bucket_3: 36830
Critical_ROB_Stalls_Percent_2_Bucket_4: 8014
Non-critical_ROB_Stalls_Percent_2_Bucket_4: 5618
Critical_ROB_Stalls_Percent_2_Bucket_5: 1014
Non-critical_ROB_Stalls_Percent_2_Bucket_5: 1675
Critical_ROB_Stalls_Percent_2_Bucket_6: 4783
Non-critical_ROB_Stalls_Percent_2_Bucket_6: 12138
Critical_ROB_Stalls_Percent_3_Bucket_0: 961546
Non-critical_ROB_Stalls_Percent_3_Bucket_0: 557744
Critical_ROB_Stalls_Percent_3_Bucket_1: 563641
Non-critical_ROB_Stalls_Percent_3_Bucket_1: 289097
Critical_ROB_Stalls_Percent_3_Bucket_2: 215496
Non-critical_ROB_Stalls_Percent_3_Bucket_2: 83494
Critical_ROB_Stalls_Percent_3_Bucket_3: 54167
Non-critical_ROB_Stalls_Percent_3_Bucket_3: 27233
Critical_ROB_Stalls_Percent_3_Bucket_4: 8714
Non-critical_ROB_Stalls_Percent_3_Bucket_4: 4918
Critical_ROB_Stalls_Percent_3_Bucket_5: 1233
Non-critical_ROB_Stalls_Percent_3_Bucket_5: 1456
Critical_ROB_Stalls_Percent_3_Bucket_6: 6108
Non-critical_ROB_Stalls_Percent_3_Bucket_6: 10813
Critical_ROB_Stalls_Percent_4_Bucket_0: 1032568
Non-critical_ROB_Stalls_Percent_4_Bucket_0: 486722
Critical_ROB_Stalls_Percent_4_Bucket_1: 609400
Non-critical_ROB_Stalls_Percent_4_Bucket_1: 243338
Critical_ROB_Stalls_Percent_4_Bucket_2: 231297
Non-critical_ROB_Stalls_Percent_4_Bucket_2: 67693
Critical_ROB_Stalls_Percent_4_Bucket_3: 60707
Non-critical_ROB_Stalls_Percent_4_Bucket_3: 20693
Critical_ROB_Stalls_Percent_4_Bucket_4: 9410
Non-critical_ROB_Stalls_Percent_4_Bucket_4: 4222
Critical_ROB_Stalls_Percent_4_Bucket_5: 1341
Non-critical_ROB_Stalls_Percent_4_Bucket_5: 1348
Critical_ROB_Stalls_Percent_4_Bucket_6: 6145
Non-critical_ROB_Stalls_Percent_4_Bucket_6: 10776
Critical_ROB_Stalls_Percent_5_Bucket_0: 1102489
Non-critical_ROB_Stalls_Percent_5_Bucket_0: 416801
Critical_ROB_Stalls_Percent_5_Bucket_1: 656820
Non-critical_ROB_Stalls_Percent_5_Bucket_1: 195918
Critical_ROB_Stalls_Percent_5_Bucket_2: 246173
Non-critical_ROB_Stalls_Percent_5_Bucket_2: 52817
Critical_ROB_Stalls_Percent_5_Bucket_3: 67133
Non-critical_ROB_Stalls_Percent_5_Bucket_3: 14267
Critical_ROB_Stalls_Percent_5_Bucket_4: 10330
Non-critical_ROB_Stalls_Percent_5_Bucket_4: 3302
Critical_ROB_Stalls_Percent_5_Bucket_5: 1384
Non-critical_ROB_Stalls_Percent_5_Bucket_5: 1305
Critical_ROB_Stalls_Percent_5_Bucket_6: 6160
Non-critical_ROB_Stalls_Percent_5_Bucket_6: 10761
Critical_ROB_Stalls_Percent_6_Bucket_0: 1193228
Non-critical_ROB_Stalls_Percent_6_Bucket_0: 326062
Critical_ROB_Stalls_Percent_6_Bucket_1: 693479
Non-critical_ROB_Stalls_Percent_6_Bucket_1: 159259
Critical_ROB_Stalls_Percent_6_Bucket_2: 254029
Non-critical_ROB_Stalls_Percent_6_Bucket_2: 44961
Critical_ROB_Stalls_Percent_6_Bucket_3: 69641
Non-critical_ROB_Stalls_Percent_6_Bucket_3: 11759
Critical_ROB_Stalls_Percent_6_Bucket_4: 11377
Non-critical_ROB_Stalls_Percent_6_Bucket_4: 2255
Critical_ROB_Stalls_Percent_6_Bucket_5: 1518
Non-critical_ROB_Stalls_Percent_6_Bucket_5: 1171
Critical_ROB_Stalls_Percent_6_Bucket_6: 6246
Non-critical_ROB_Stalls_Percent_6_Bucket_6: 10675
Critical_ROB_Stalls_Percent_7_Bucket_0: 1279016
Non-critical_ROB_Stalls_Percent_7_Bucket_0: 240274
Critical_ROB_Stalls_Percent_7_Bucket_1: 731182
Non-critical_ROB_Stalls_Percent_7_Bucket_1: 121556
Critical_ROB_Stalls_Percent_7_Bucket_2: 263110
Non-critical_ROB_Stalls_Percent_7_Bucket_2: 35880
Critical_ROB_Stalls_Percent_7_Bucket_3: 71770
Non-critical_ROB_Stalls_Percent_7_Bucket_3: 9630
Critical_ROB_Stalls_Percent_7_Bucket_4: 11687
Non-critical_ROB_Stalls_Percent_7_Bucket_4: 1945
Critical_ROB_Stalls_Percent_7_Bucket_5: 1601
Non-critical_ROB_Stalls_Percent_7_Bucket_5: 1088
Critical_ROB_Stalls_Percent_7_Bucket_6: 9619
Non-critical_ROB_Stalls_Percent_7_Bucket_6: 7302
Critical_ROB_Stalls_Percent_8_Bucket_0: 1362675
Non-critical_ROB_Stalls_Percent_8_Bucket_0: 156615
Critical_ROB_Stalls_Percent_8_Bucket_1: 767565
Non-critical_ROB_Stalls_Percent_8_Bucket_1: 85173
Critical_ROB_Stalls_Percent_8_Bucket_2: 276793
Non-critical_ROB_Stalls_Percent_8_Bucket_2: 22197
Critical_ROB_Stalls_Percent_8_Bucket_3: 74181
Non-critical_ROB_Stalls_Percent_8_Bucket_3: 7219
Critical_ROB_Stalls_Percent_8_Bucket_4: 12095
Non-critical_ROB_Stalls_Percent_8_Bucket_4: 1537
Critical_ROB_Stalls_Percent_8_Bucket_5: 1704
Non-critical_ROB_Stalls_Percent_8_Bucket_5: 985
Critical_ROB_Stalls_Percent_8_Bucket_6: 12504
Non-critical_ROB_Stalls_Percent_8_Bucket_6: 4417
Average ROB occupancy Load Stall Begin: 47.5241
Average ROB occupancy Load Stall End: 57.819
Min ROB occupancy Load Stall Begin: 1
Max ROB occupancy Load Stall Begin: 352
Min ROB occupancy Load Stall End: 1
Max ROB occupancy Load Stall End: 352
Average ROB occupancy Critical Load Stall Begin: -nan
Average ROB occupancy Critical Load Stall End: -nan
Min ROB occupancy Critical Load Stall Begin: 400
Max ROB occupancy Critical Load Stall Begin: 0
Min ROB occupancy Critical Load Stall End: 400
Max ROB occupancy Critical Load Stall End: 0
 ROB Load Stall Begin Bucket Count 0: 1834174
 ROB Load Stall End Bucket Count 0: 1519290
 ROB Critical Load Stall Begin Bucket Count 0: 0
 ROB Critical Load Stall End Bucket Count 0: 0
 ROB Load Stall Begin Bucket Count 1: 660388
 ROB Load Stall End Bucket Count 1: 852738
 ROB Critical Load Stall Begin Bucket Count 1: 0
 ROB Critical Load Stall End Bucket Count 1: 0
 ROB Load Stall Begin Bucket Count 2: 210687
 ROB Load Stall End Bucket Count 2: 298990
 ROB Critical Load Stall Begin Bucket Count 2: 0
 ROB Critical Load Stall End Bucket Count 2: 0
 ROB Load Stall Begin Bucket Count 3: 53485
 ROB Load Stall End Bucket Count 3: 81400
 ROB Critical Load Stall Begin Bucket Count 3: 0
 ROB Critical Load Stall End Bucket Count 3: 0
 ROB Load Stall Begin Bucket Count 4: 8815
 ROB Load Stall End Bucket Count 4: 13632
 ROB Critical Load Stall Begin Bucket Count 4: 0
 ROB Critical Load Stall End Bucket Count 4: 0
 ROB Load Stall Begin Bucket Count 5: 2856
 ROB Load Stall End Bucket Count 5: 2689
 ROB Critical Load Stall Begin Bucket Count 5: 0
 ROB Critical Load Stall End Bucket Count 5: 0
 ROB Load Stall Begin Bucket Count 6: 15255
 ROB Load Stall End Bucket Count 6: 16921
 ROB Critical Load Stall Begin Bucket Count 6: 0
 ROB Critical Load Stall End Bucket Count 6: 0
PIST Tag Read Accesses: 3090628
PIST Read Accesses: 1545314
PIST Tag Write Accesses: 3090628
PIST Write Accesses: 1545314
Criticality detector called times: 2771943
Max global_stall_cycles_count: 3496567
Threshold Modified: 1 times, factor: -1
Sturdy critical IP cache stats: 
 Unused entries: 0
CIC Tag Read Accesses: 0
CIC Read Accesses: 0
CIC Tag Write Accesses: 0
CIC Write Accesses: 0
Wobbly critical IP cache stats: 
 Unused entries: 115
CIC Tag Read Accesses: 76501249
CIC Read Accesses: 0
CIC Tag Write Accesses: 44
CIC Write Accesses: 0
ITLB TOTAL     ACCESS:   10557828  HIT:    9897955  MISS:     659873  HIT %:    93.7499  MISS %:    6.25008   MPKI: 13.1975
ITLB LOAD TRANSLATION ACCESS:    8281966  HIT:    8259256  MISS:      22710  HIT %:    99.7258  MISS %:    0.27421   MPKI: 0.4542
ITLB TRANSLATION FROM L1D PREFETCHER ACCESS:    2275862  HIT:    1638699  MISS:     637163  HIT %:    72.0034  MISS %:    27.9966   MPKI: 12.7433
ITLB PREFETCH  REQUESTED:          0  ISSUED:          0  USEFUL:     536603  USELESS:     100561
ITLB USEFUL LOAD PREFETCHES:     536603 PREFETCH ISSUED TO LOWER LEVEL:          0  ACCURACY: inf
ITLB TIMELY PREFETCHES:     536603 LATE PREFETCHES: 54 DROPPED PREFETCHES: 0
ITLB PREFETCHES SAME FILL-ORIGIN LEVEL: 0 DIFFERENT FILL-ORIGIN LEVEL: 0
ITLB AVERAGE MISS LATENCY: 3673.9 cycles
ITLB RQ	ACCESS:   16051288	FORWARD:          0	MERGED:    5452795	TO_CACHE:   10598493

DTLB TOTAL     ACCESS:    9463534  HIT:    9018296  MISS:     445238  HIT %:    95.2952  MISS %:    4.70478   MPKI: 8.90476
DTLB LOAD TRANSLATION ACCESS:    9463534  HIT:    9018296  MISS:     445238  HIT %:    95.2952  MISS %:    4.70478   MPKI: 8.90476
DTLB PREFETCH  REQUESTED:          0  ISSUED:          0  USEFUL:          0  USELESS:          0
DTLB USEFUL LOAD PREFETCHES:          0 PREFETCH ISSUED TO LOWER LEVEL:          0  ACCURACY: -nan
DTLB TIMELY PREFETCHES:          0 LATE PREFETCHES: 0 DROPPED PREFETCHES: 0
DTLB PREFETCHES SAME FILL-ORIGIN LEVEL: 0 DIFFERENT FILL-ORIGIN LEVEL: 0
DTLB AVERAGE MISS LATENCY: 9.45032 cycles
DTLB RQ	ACCESS:   13379650	FORWARD:          0	MERGED:    3895707	TO_CACHE:    9483943

STLB TOTAL     ACCESS:    1117914  HIT:    1113570  MISS:       4344  HIT %:    99.6114  MISS %:   0.388581   MPKI: 0.08688
STLB LOAD TRANSLATION ACCESS:     467894  HIT:     463664  MISS:       4230  HIT %:    99.0959  MISS %:   0.904051   MPKI: 0.0846
STLB TRANSLATION FROM L1D PREFETCHER ACCESS:     650020  HIT:     649906  MISS:        114  HIT %:    99.9825  MISS %:  0.0175379   MPKI: 0.00228
STLB PREFETCH  REQUESTED:          0  ISSUED:          0  USEFUL:         29  USELESS:         80
STLB USEFUL LOAD PREFETCHES:         29 PREFETCH ISSUED TO LOWER LEVEL:          0  ACCURACY: inf
STLB TIMELY PREFETCHES:         29 LATE PREFETCHES: 0 DROPPED PREFETCHES: 0
STLB PREFETCHES SAME FILL-ORIGIN LEVEL: 0 DIFFERENT FILL-ORIGIN LEVEL: 0
STLB AVERAGE MISS LATENCY: 46.261 cycles
STLB RQ	ACCESS:    1123858	FORWARD:          0	MERGED:       5944	TO_CACHE:    1117914

STLB Hit, L1D data hit: 0
STLB Hit, L2C data hit: 0
STLB Hit, LLC data hit: 0
STLB Hit, LLC data miss: 0
STLB STLB hints to L2: 0
L1D TOTAL     ACCESS:   13256247  HIT:   12605757  MISS:     650490  HIT %:     95.093  MISS %:    4.90704   MPKI: 13.0098
L1D LOAD      ACCESS:    6975776  HIT:    6434745  MISS:     541031  HIT %:    92.2441  MISS %:    7.75585   MPKI: 10.8206
L1D RFO       ACCESS:    6263544  HIT:    6166706  MISS:      96838  HIT %:    98.4539  MISS %:    1.54606   MPKI: 1.93676
L1D PREFETCH  ACCESS:      16927  HIT:       4306  MISS:      12621  HIT %:    25.4386  MISS %:    74.5614   MPKI: 0.25242
L1D PREFETCH  REQUESTED:      37497  ISSUED:      37497  USEFUL:       1592  USELESS:      11091
L1D USEFUL LOAD PREFETCHES:       1592 PREFETCH ISSUED TO LOWER LEVEL:      12836  ACCURACY: 12.4026
L1D TIMELY PREFETCHES:       1592 LATE PREFETCHES: 211 DROPPED PREFETCHES: 0
L1D PREFETCHES SAME FILL-ORIGIN LEVEL: 12836 DIFFERENT FILL-ORIGIN LEVEL: 0
L1D AVERAGE MISS LATENCY: 12426.3 cycles
L1D RQ	ACCESS:   10501633	FORWARD:          0	MERGED:    3345287	TO_CACHE:    7001758
L1D WQ	ACCESS:    6510215	FORWARD:     154591	MERGED:     132323	TO_CACHE:    6377892
L1D PQ	ACCESS:      18750	FORWARD:          0	MERGED:          0	TO_CACHE:      18747

L1D UNIQUE REGIONS ACCESSED: 0
L1D REGIONS CONFLICTS: 0
L1D Cross Page Prefetch Requests: 0
L1D Same Page Prefetch Requests: 192875
L1D ROI Sum of L1D PQ occupancy: 244294
L1D PREFETCHES PUSHED FROM L2C: 0
L1I TOTAL     ACCESS:   15990782  HIT:   11537925  MISS:    4452857  HIT %:    72.1536  MISS %:    27.8464   MPKI: 89.0571
L1I LOAD      ACCESS:    9780867  HIT:    9749453  MISS:      31414  HIT %:    99.6788  MISS %:   0.321178   MPKI: 0.62828
L1I PREFETCH  ACCESS:    6209915  HIT:    1788472  MISS:    4421443  HIT %:    28.8003  MISS %:    71.1997   MPKI: 88.4289
L1I PREFETCH  REQUESTED:    6428055  ISSUED:    6409126  USEFUL:    3391790  USELESS:    1029657
L1I USEFUL LOAD PREFETCHES:    3391790 PREFETCH ISSUED TO LOWER LEVEL:    4432517  ACCURACY: 76.5206
L1I TIMELY PREFETCHES:    3391790 LATE PREFETCHES: 11068 DROPPED PREFETCHES: 0
L1I PREFETCHES SAME FILL-ORIGIN LEVEL: 4432517 DIFFERENT FILL-ORIGIN LEVEL: 0
L1I AVERAGE MISS LATENCY: 114642 cycles
L1I RQ	ACCESS:   14204794	FORWARD:          0	MERGED:    4420718	TO_CACHE:    9784076
L1I PQ	ACCESS:    6409126	FORWARD:          0	MERGED:     141914	TO_CACHE:    6267212

BTB TOTAL     ACCESS:    6392210  HIT:    5397837  MISS:     994373  HIT %:     84.444  MISS %:     15.556   MPKI: 19.8875
BTB BRANCH_DIRECT_JUMP	ACCESS:     774599  HIT:     695785  MISS:      78814
BTB BRANCH_INDIRECT	ACCESS:     108807  HIT:      74004  MISS:      34803
BTB BRANCH_CONDITIONAL	ACCESS:    2988960  HIT:    2775647  MISS:     213313
BTB BRANCH_DIRECT_CALL	ACCESS:    1048809  HIT:     930092  MISS:     118717
BTB BRANCH_INDIRECT_CALL	ACCESS:     211109  HIT:     142418  MISS:      68691
BTB BRANCH_RETURN	ACCESS:    1259926  HIT:     779891  MISS:     480035
BTB BRANCH_OTHER ACCESS:          0  HIT:          0  MISS:          0

L2C TOTAL     ACCESS:    5349258  HIT:    5129081  MISS:     220177  HIT %:     95.884  MISS %:    4.11603   MPKI: 4.40354
L2C LOAD      ACCESS:     561158  HIT:     412185  MISS:     148973  HIT %:    73.4526  MISS %:    26.5474   MPKI: 2.97946
L2C DATA LOAD MPKI: 2.95162
L2C INSTRUCTION LOAD MPKI: 0.02784
L2C RFO       ACCESS:      96832  HIT:      71405  MISS:      25427  HIT %:    73.7411  MISS %:    26.2589   MPKI: 0.50854
L2C PREFETCH  ACCESS:    4445347  HIT:    4408155  MISS:      37192  HIT %:    99.1633  MISS %:    0.83665   MPKI: 0.74384
L2C DATA PREFETCH MPKI: 0.18358
L2C INSTRUCTION PREFETCH MPKI: 0.56026
L2C WRITEBACK ACCESS:     241082  HIT:     234955  MISS:       6127  HIT %:    97.4585  MISS %:    2.54146   MPKI: 0.12254
L2C LOAD TRANSLATION ACCESS:       4674  HIT:       2343  MISS:       2331  HIT %:    50.1284  MISS %:    49.8716   MPKI: 0.04662
L2C TRANSLATION FROM L1D PREFETCHER ACCESS:        165  HIT:         38  MISS:        127  HIT %:    23.0303  MISS %:    76.9697   MPKI: 0.00254
L2C PREFETCH  REQUESTED:          0  ISSUED:          0  USEFUL:        850  USELESS:      36539
L2C USEFUL LOAD PREFETCHES:        850 PREFETCH ISSUED TO LOWER LEVEL:      37192  ACCURACY: 2.28544
L2C TIMELY PREFETCHES:        850 LATE PREFETCHES: 0 DROPPED PREFETCHES: 0
L2C PREFETCHES SAME FILL-ORIGIN LEVEL: 0 DIFFERENT FILL-ORIGIN LEVEL: 0
L2C AVERAGE MISS LATENCY: 45.0888 cycles
L2C RQ	ACCESS:     662839	FORWARD:          0	MERGED:          0	TO_CACHE:     662829
L2C WQ	ACCESS:     241082	FORWARD:         10	MERGED:          0	TO_CACHE:     241082
L2C PQ	ACCESS:    4445353	FORWARD:          0	MERGED:          0	TO_CACHE:    4445353

L2C Instructions Evicting Data 13504
L2C Translations Evicting Data 2263
L2C Data Evicting Data 167895
L2C Instructions Evicting Instructions 15732
L2C Translations Evicting Instructions 166
L2C Data Evicting Instructions 12098
L2C Instructions Evicting Translations 169
L2C Translations Evicting Translations 29
L2C Data Evicting Translations 2194
L2C Dense regions hint from L2: 0
PSCL5 TOTAL     ACCESS:       4344  HIT:       4344  MISS:          0  HIT %:        100  MISS %:          0   MPKI: 0
PSCL5 LOAD TRANSLATION ACCESS:       4230  HIT:       4230  MISS:          0  HIT %:        100  MISS %:          0   MPKI: 0
PSCL5 TRANSLATION FROM L1D PREFETCHER ACCESS:        114  HIT:        114  MISS:          0  HIT %:        100  MISS %:          0   MPKI: 0
PSCL5 PREFETCH  REQUESTED:          0  ISSUED:          0  USEFUL:          0  USELESS:          0
PSCL5 USEFUL LOAD PREFETCHES:          0 PREFETCH ISSUED TO LOWER LEVEL:          0  ACCURACY: -nan
PSCL5 TIMELY PREFETCHES:          0 LATE PREFETCHES: 0 DROPPED PREFETCHES: 0
PSCL5 PREFETCHES SAME FILL-ORIGIN LEVEL: 0 DIFFERENT FILL-ORIGIN LEVEL: 0

PSCL4 TOTAL     ACCESS:       4330  HIT:       4325  MISS:          5  HIT %:    99.8845  MISS %:   0.115473   MPKI: 0.0001
PSCL4 LOAD TRANSLATION ACCESS:       4216  HIT:       4211  MISS:          5  HIT %:    99.8814  MISS %:   0.118596   MPKI: 0.0001
PSCL4 TRANSLATION FROM L1D PREFETCHER ACCESS:        114  HIT:        114  MISS:          0  HIT %:        100  MISS %:          0   MPKI: 0
PSCL4 PREFETCH  REQUESTED:          0  ISSUED:          0  USEFUL:          0  USELESS:          0
PSCL4 USEFUL LOAD PREFETCHES:          0 PREFETCH ISSUED TO LOWER LEVEL:          0  ACCURACY: -nan
PSCL4 TIMELY PREFETCHES:          0 LATE PREFETCHES: 0 DROPPED PREFETCHES: 0
PSCL4 PREFETCHES SAME FILL-ORIGIN LEVEL: 0 DIFFERENT FILL-ORIGIN LEVEL: 0

PSCL3 TOTAL     ACCESS:       4337  HIT:       4332  MISS:          5  HIT %:    99.8847  MISS %:   0.115287   MPKI: 0.0001
PSCL3 LOAD TRANSLATION ACCESS:       4223  HIT:       4218  MISS:          5  HIT %:    99.8816  MISS %:   0.118399   MPKI: 0.0001
PSCL3 TRANSLATION FROM L1D PREFETCHER ACCESS:        114  HIT:        114  MISS:          0  HIT %:        100  MISS %:          0   MPKI: 0
PSCL3 PREFETCH  REQUESTED:          0  ISSUED:          0  USEFUL:          0  USELESS:          0
PSCL3 USEFUL LOAD PREFETCHES:          0 PREFETCH ISSUED TO LOWER LEVEL:          0  ACCURACY: -nan
PSCL3 TIMELY PREFETCHES:          0 LATE PREFETCHES: 0 DROPPED PREFETCHES: 0
PSCL3 PREFETCHES SAME FILL-ORIGIN LEVEL: 0 DIFFERENT FILL-ORIGIN LEVEL: 0

PSCL2 TOTAL     ACCESS:       4344  HIT:       3859  MISS:        485  HIT %:    88.8352  MISS %:    11.1648   MPKI: 0.0097
PSCL2 LOAD TRANSLATION ACCESS:       4281  HIT:       3796  MISS:        485  HIT %:    88.6709  MISS %:    11.3291   MPKI: 0.0097
PSCL2 TRANSLATION FROM L1D PREFETCHER ACCESS:         63  HIT:         63  MISS:          0  HIT %:        100  MISS %:          0   MPKI: 0
PSCL2 PREFETCH  REQUESTED:          0  ISSUED:          0  USEFUL:          0  USELESS:          0
PSCL2 USEFUL LOAD PREFETCHES:          0 PREFETCH ISSUED TO LOWER LEVEL:          0  ACCURACY: -nan
PSCL2 TIMELY PREFETCHES:          0 LATE PREFETCHES: 0 DROPPED PREFETCHES: 0
PSCL2 PREFETCHES SAME FILL-ORIGIN LEVEL: 0 DIFFERENT FILL-ORIGIN LEVEL: 0

LLC TOTAL     ACCESS:     307447  HIT:     285505  MISS:      21942  HIT %:    92.8632  MISS %:    7.13684   MPKI: 0.43884
LLC LOAD      ACCESS:     148973  HIT:     134803  MISS:      14170  HIT %:    90.4882  MISS %:    9.51179   MPKI: 0.2834
LLC RFO       ACCESS:      25425  HIT:      20584  MISS:       4841  HIT %:    80.9597  MISS %:    19.0403   MPKI: 0.09682
LLC PREFETCH  ACCESS:      37192  HIT:      34677  MISS:       2515  HIT %:    93.2378  MISS %:    6.76221   MPKI: 0.0503
LLC WRITEBACK ACCESS:      93399  HIT:      93116  MISS:        283  HIT %:     99.697  MISS %:   0.303001   MPKI: 0.00566
LLC LOAD TRANSLATION ACCESS:       2331  HIT:       2203  MISS:        128  HIT %:    94.5088  MISS %:    5.49121   MPKI: 0.00256
LLC TRANSLATION FROM L1D PREFETCHER ACCESS:        127  HIT:        122  MISS:          5  HIT %:     96.063  MISS %:    3.93701   MPKI: 0.0001
LLC PREFETCH  REQUESTED:          0  ISSUED:          0  USEFUL:       1160  USELESS:       3629
LLC USEFUL LOAD PREFETCHES:       1160 PREFETCH ISSUED TO LOWER LEVEL:       2515  ACCURACY: 46.1233
LLC TIMELY PREFETCHES:       1160 LATE PREFETCHES: 0 DROPPED PREFETCHES: 0
LLC PREFETCHES SAME FILL-ORIGIN LEVEL: 0 DIFFERENT FILL-ORIGIN LEVEL: 0
LLC AVERAGE MISS LATENCY: 159.564 cycles
LLC RQ	ACCESS:     176858	FORWARD:          0	MERGED:          0	TO_CACHE:     176856
LLC WQ	ACCESS:      93399	FORWARD:          2	MERGED:          0	TO_CACHE:      93399
LLC PQ	ACCESS:      37192	FORWARD:          0	MERGED:          0	TO_CACHE:      37192

LLC Dense regions hint to LLC: 0

RAW hits: 1555030
Loads Generated: 12056659
Loads sent to L1D: 10501633
Stores Generated: 6510203
Stores sent to L1D: 6510215
Major fault: 0 Minor fault: 2572
Allocated PAGES: 2572
I-Shadow cache 408 bytes
Touched + WorthPF tables 6144 bytes 
MMA filter 174 bytes 
FNL filter 272 bytes 
TOTAL PREFETCHER STORAGE SIZE: 25174 bytes
CPU 0 L1I next line prefetcher final stats

stream: 
stream:times selected: 174979
stream:pref_filled: 62818
stream:pref_useful: 8894
stream:pref_late: 1402
stream:misses: 6704
stream:misses_by_poll: 0

CS: 
CS:times selected: 5056
CS:pref_filled: 2108
CS:pref_useful: 1516
CS:pref_late: 184
CS:misses: 111
CS:misses_by_poll: 0

CPLX: 
CPLX:times selected: 168240
CPLX:pref_filled: 35101
CPLX:pref_useful: 3067
CPLX:pref_late: 778
CPLX:misses: 23258
CPLX:misses_by_poll: 7

NL_L1: 
NL:times selected: 1023
NL:pref_filled: 294
NL:pref_useful: 16
NL:pref_late: 18
NL:misses: 216
NL:misses_by_poll: 0

total selections: 349298
total_filled: 12621
total_useful: 1592
total_late: 2418
total_polluted: 7
total_misses_after_warmup: 32428
conflicts: 127297
Degree Incremented Times: 0
Degree Decremented Times: 58471

L1 IP Table Write Accesses: 164737
L1 IP Table Read Accesses: 37440
L1 RST Write Accesses: 16759
L1 RST Read Accesses: 33518
L1 CSPT Write Accesses: 16759
L1 CSPT Read Accesses: 32990
L1 RR Filter Tag Write Accesses: 18750
L1 RR Filter Tag Read Accesses: 770403
L1 IP Table Tag Write Accesses: 298448
L1 IP Table Tag Read Accesses: 298448
L1 RST Tag Write Accesses: 0
L1 RST Tag Read Accesses: 151938
L1 RR Filter Write Accesses: 0
L1 RR Filter Read Accesses: 25022
test: 94415

DRAM Statistics
 CHANNEL 0
 RQ ROW_BUFFER_HIT:       2651  ROW_BUFFER_MISS:      19008
 DBUS_CONGESTED:         13
 WQ ROW_BUFFER_HIT:       2218  ROW_BUFFER_MISS:      10305  FULL:          0

 AVG_CONGESTED_CYCLE: 2
 All warmup complete: 2
Channel 0 Bank busy for read cycles: 0
Channel 0 Bank busy for write cycles: 0
Channel 0
Rank 0
0banks busy for read cycles: 61435653
0banks busy for write cycles: 6862
1banks busy for read cycles: 1813984
1banks busy for write cycles: 996103
2banks busy for read cycles: 363341
2banks busy for write cycles: 251671
3banks busy for read cycles: 117227
3banks busy for write cycles: 114770
4banks busy for read cycles: 13920
4banks busy for write cycles: 53410
5banks busy for read cycles: 3221
5banks busy for write cycles: 29555
6banks busy for read cycles: 1791
6banks busy for write cycles: 15698
7banks busy for read cycles: 1134
7banks busy for write cycles: 8791
8banks busy for read cycles: 122
8banks busy for write cycles: 7969

CPU 0 Branch Prediction Accuracy: 99.9029% MPKI: 0.19006 Average ROB Occupancy at Mispredict: 58.1313
Branch types
NOT_BRANCH: 40217157 80.4343%
BRANCH_DIRECT_JUMP: 774599 1.5492%
BRANCH_INDIRECT: 108807 0.217614%
BRANCH_CONDITIONAL: 6379334 12.7587%
BRANCH_DIRECT_CALL: 1048809 2.09762%
BRANCH_INDIRECT_CALL: 211109 0.422218%
BRANCH_RETURN: 1259926 2.51985%
BRANCH_OTHER: 0 0%

DRAM PAGES: 1048576
Allocated PAGES: 2572
