
*** ChampSim Multicore Out-of-Order Simulator ***

Warmup Instructions: 50000000
Simulation Instructions: 50000000
Number of CPUs: 1
LLC sets: 2048
LLC ways: 16
Off-chip DRAM Size: 4096 MB Channels: 1 Width: 64-bit Data Rate: 6400 MT/s
CPU 0 runs ../IPC-traces//server_031.champsimtrace.xz
.xz
NUM_OF_IPS_IN_CRITICAL_IP_TRAINING: 64
NUM_OF_CRITICAL_IP_TRAINING_TABLE_WAYS: 2
NUM_OF_CRITICAL_IP_TRAINING_TABLE_SETS: 32
WOBBLY_CRITICAL_IP_CACHE_SETS: 32
WOBBLY_CRITICAL_IP_CACHE_WAYS: 4
BTB has LRU replacement policy
ITLB has LRU replacement policy
DTLB has LRU replacement policy
STLB has LRU replacement policy
CPU 0 L1I next line prefetcher
L1I has LRU replacement policy
L1D has LRU replacement policy
Bingo PHT WAYS: 16 and PHT_SIZE: 16384
Initialize SRRIP state for L2C
Initialize DRRIP state for LLC
Heartbeat CPU 0 instructions: 10000000 cycles: 2883680 heartbeat IPC: 3.46779 cumulative IPC: 3.46779 (Simulation time: 0 hr 3 min 12 sec) 
Heartbeat CPU 0 instructions: 20000000 cycles: 5763489 heartbeat IPC: 3.47245 cumulative IPC: 3.47012 (Simulation time: 0 hr 6 min 1 sec) 
Heartbeat CPU 0 instructions: 30000002 cycles: 8641235 heartbeat IPC: 3.47494 cumulative IPC: 3.47173 (Simulation time: 0 hr 8 min 40 sec) 
Heartbeat CPU 0 instructions: 40000003 cycles: 11518836 heartbeat IPC: 3.47512 cumulative IPC: 3.47257 (Simulation time: 0 hr 11 min 0 sec) 
Heartbeat CPU 0 instructions: 50000001 cycles: 14398987 heartbeat IPC: 3.47204 cumulative IPC: 3.47247 (Simulation time: 0 hr 13 min 11 sec) 

Warmup complete CPU 0 instructions: 50000001 cycles: 14398987 (Simulation time: 0 hr 13 min 11 sec) 

% increase in all ip prefetch 419.189
% increase in all ip prefetch -1.90262
Heartbeat CPU 0 instructions: 60000002 cycles: 30769999 heartbeat IPC: 0.610836 cumulative IPC: 0.610836 (Simulation time: 0 hr 15 min 45 sec) 
Heartbeat CPU 0 instructions: 70000001 cycles: 47195104 heartbeat IPC: 0.608824 cumulative IPC: 0.609828 (Simulation time: 0 hr 18 min 18 sec) 
*** Reached end of trace for Core: 0 Repeating trace: ../IPC-traces//server_031.champsimtrace.xz
Heartbeat CPU 0 instructions: 80000000 cycles: 63475145 heartbeat IPC: 0.614249 cumulative IPC: 0.611295 (Simulation time: 0 hr 20 min 49 sec) 
Heartbeat CPU 0 instructions: 90000000 cycles: 79730987 heartbeat IPC: 0.615163 cumulative IPC: 0.612257 (Simulation time: 0 hr 23 min 19 sec) 
Heartbeat CPU 0 instructions: 100000000 cycles: 95914127 heartbeat IPC: 0.617927 cumulative IPC: 0.613383 (Simulation time: 0 hr 26 min 13 sec) 
Finished CPU 0 instructions: 50000000 cycles: 81515146 cumulative IPC: 0.613383 (Simulation time: 0 hr 26 min 13 sec) 

ChampSim completed all CPUs

Region of Interest Statistics

CPU 0 cumulative IPC: 0.613383 instructions: 50000000 cycles: 81515146

CPU 0 Average Load ROB stall cycles: 1.96013e+07
CPU 0 Fraction of times ROB stalled by Loads: 35.4546
CPU 0 Percentage of Load stall cycles in Total stall cycles: 2.72017e+08
Issued all: 27911621
Issued LT all: 22051739
rob_not_full_when_issued_lt_all: 21922367
Issued LT one: 17128649
rob_not_full_when_issued_lt_one: 17016235
critical_ip_candidate_identification_operations: 6797862
critical_ip_candidate_identification_operation_per_cycle: 0.0833939
 Total stall cycles: 69080997
 Total load stall cycles: 187912368497461
Unique Load IPs: 12877
CPU 0 NUM of IPS identified critical: 5
CPU 0 Num of Load IPs stalling ROB: 10833
Threshold modification factor: -1
Max PIST entries: 64
Min PIST entries: 0
Avg PIST entries: 32
Trouble in retire width: 0.894438
MaC = Marked as critical.
lt_50_percent_before_Mac: 5
gt_90_percent_before_Mac: 0
gt_75_percent_before_Mac: 0
gt_50_percent_before_Mac: 0
stall_proportion_bin_same_before_after: 0
stall_proportion_bin_lower_before_after: 0
stall_proportion_bin_upper_before_after: 0
average_stall_proportion_before: 0.110074
average_stall_proportion_after: 0.105153
Critical IP stalls, total frequency: 100762
Non-critical IP stalls, total frequency: 3298169
Total Freq all stalling IPs: 3398931
Critical_IP_Detector_Accuracy_70: 0.8
Critical_IP_Detector_Accuracy_80: 0.8
Critical_IP_Detector_Accuracy_90: 0.8
Critical_IP_Detector_Coverage_70: 0.00304878
Critical_IP_Detector_Coverage_80: 0.00228833
Critical_IP_Detector_Coverage_90: 0.00178731
stat_90_percent_critical_ip_stalls_freq: 3059255
stat_90_percent_non_critical_ip_stalls_freq: 339676
AVERAGE_ROB_Occupancy_90_Percent_Critical_IP_Stalls: 47.324
AVERAGE_ROB_Occupancy_90_Percent_Non_Critical_IP_Stalls: 35.4629
Critical_IP_ROB_Stalls_Bucket_0: 6888
Non-critical_IP_ROB_Stalls_Bucket_0: 2333188
Critical_IP_ROB_Stalls_Bucket_1: 22490
Non-critical_IP_ROB_Stalls_Bucket_1: 690203
Critical_IP_ROB_Stalls_Bucket_2: 41662
Non-critical_IP_ROB_Stalls_Bucket_2: 200094
Critical_IP_ROB_Stalls_Bucket_3: 14829
Non-critical_IP_ROB_Stalls_Bucket_3: 51176
Critical_IP_ROB_Stalls_Bucket_4: 6260
Non-critical_IP_ROB_Stalls_Bucket_4: 17125
Critical_IP_ROB_Stalls_Bucket_5: 2940
Non-critical_IP_ROB_Stalls_Bucket_5: 4818
Critical_IP_ROB_Stalls_Bucket_6: 5693
Non-critical_IP_ROB_Stalls_Bucket_6: 1565
0 => IPs accounting for >50 percent of stalls, 1 => 55, 2 => 60, 3 => 65 and so on till 90.
percent50: 50.0119 num IPs:  481
percent55: 55.0208 num IPs: 680
percent60: 60.0121 num IPs: 885
percent65: 65.0005 num IPs: 1096
percent70: 70.0032 num IPs: 1312
percent75: 75.0197 num IPs: 1529
percent80: 80.0037 num IPs: 1748
percent85: 85.0053 num IPs: 1977
percent90: 90.0067 num IPs: 2238
Critical_ROB_Stalls_Percent_0_Bucket_0: 976413
Non-critical_ROB_Stalls_Percent_0_Bucket_0: 1363663
Critical_ROB_Stalls_Percent_0_Bucket_1: 443088
Non-critical_ROB_Stalls_Percent_0_Bucket_1: 269605
Critical_ROB_Stalls_Percent_0_Bucket_2: 186594
Non-critical_ROB_Stalls_Percent_0_Bucket_2: 55162
Critical_ROB_Stalls_Percent_0_Bucket_3: 59599
Non-critical_ROB_Stalls_Percent_0_Bucket_3: 6406
Critical_ROB_Stalls_Percent_0_Bucket_4: 20752
Non-critical_ROB_Stalls_Percent_0_Bucket_4: 2633
Critical_ROB_Stalls_Percent_0_Bucket_5: 6823
Non-critical_ROB_Stalls_Percent_0_Bucket_5: 935
Critical_ROB_Stalls_Percent_0_Bucket_6: 6600
Non-critical_ROB_Stalls_Percent_0_Bucket_6: 658
Critical_ROB_Stalls_Percent_1_Bucket_0: 1108488
Non-critical_ROB_Stalls_Percent_1_Bucket_0: 1231588
Critical_ROB_Stalls_Percent_1_Bucket_1: 473467
Non-critical_ROB_Stalls_Percent_1_Bucket_1: 239226
Critical_ROB_Stalls_Percent_1_Bucket_2: 193202
Non-critical_ROB_Stalls_Percent_1_Bucket_2: 48554
Critical_ROB_Stalls_Percent_1_Bucket_3: 60048
Non-critical_ROB_Stalls_Percent_1_Bucket_3: 5957
Critical_ROB_Stalls_Percent_1_Bucket_4: 21484
Non-critical_ROB_Stalls_Percent_1_Bucket_4: 1901
Critical_ROB_Stalls_Percent_1_Bucket_5: 6831
Non-critical_ROB_Stalls_Percent_1_Bucket_5: 927
Critical_ROB_Stalls_Percent_1_Bucket_6: 6600
Non-critical_ROB_Stalls_Percent_1_Bucket_6: 658
Critical_ROB_Stalls_Percent_2_Bucket_0: 1214602
Non-critical_ROB_Stalls_Percent_2_Bucket_0: 1125474
Critical_ROB_Stalls_Percent_2_Bucket_1: 525598
Non-critical_ROB_Stalls_Percent_2_Bucket_1: 187095
Critical_ROB_Stalls_Percent_2_Bucket_2: 203790
Non-critical_ROB_Stalls_Percent_2_Bucket_2: 37966
Critical_ROB_Stalls_Percent_2_Bucket_3: 60761
Non-critical_ROB_Stalls_Percent_2_Bucket_3: 5244
Critical_ROB_Stalls_Percent_2_Bucket_4: 21581
Non-critical_ROB_Stalls_Percent_2_Bucket_4: 1804
Critical_ROB_Stalls_Percent_2_Bucket_5: 6834
Non-critical_ROB_Stalls_Percent_2_Bucket_5: 924
Critical_ROB_Stalls_Percent_2_Bucket_6: 6601
Non-critical_ROB_Stalls_Percent_2_Bucket_6: 657
Critical_ROB_Stalls_Percent_3_Bucket_0: 1339416
Non-critical_ROB_Stalls_Percent_3_Bucket_0: 1000660
Critical_ROB_Stalls_Percent_3_Bucket_1: 562966
Non-critical_ROB_Stalls_Percent_3_Bucket_1: 149727
Critical_ROB_Stalls_Percent_3_Bucket_2: 210999
Non-critical_ROB_Stalls_Percent_3_Bucket_2: 30757
Critical_ROB_Stalls_Percent_3_Bucket_3: 60896
Non-critical_ROB_Stalls_Percent_3_Bucket_3: 5109
Critical_ROB_Stalls_Percent_3_Bucket_4: 21602
Non-critical_ROB_Stalls_Percent_3_Bucket_4: 1783
Critical_ROB_Stalls_Percent_3_Bucket_5: 6834
Non-critical_ROB_Stalls_Percent_3_Bucket_5: 924
Critical_ROB_Stalls_Percent_3_Bucket_6: 6604
Non-critical_ROB_Stalls_Percent_3_Bucket_6: 654
Critical_ROB_Stalls_Percent_4_Bucket_0: 1489976
Non-critical_ROB_Stalls_Percent_4_Bucket_0: 850100
Critical_ROB_Stalls_Percent_4_Bucket_1: 580969
Non-critical_ROB_Stalls_Percent_4_Bucket_1: 131724
Critical_ROB_Stalls_Percent_4_Bucket_2: 212409
Non-critical_ROB_Stalls_Percent_4_Bucket_2: 29347
Critical_ROB_Stalls_Percent_4_Bucket_3: 60951
Non-critical_ROB_Stalls_Percent_4_Bucket_3: 5054
Critical_ROB_Stalls_Percent_4_Bucket_4: 21604
Non-critical_ROB_Stalls_Percent_4_Bucket_4: 1781
Critical_ROB_Stalls_Percent_4_Bucket_5: 6834
Non-critical_ROB_Stalls_Percent_4_Bucket_5: 924
Critical_ROB_Stalls_Percent_4_Bucket_6: 6604
Non-critical_ROB_Stalls_Percent_4_Bucket_6: 654
Critical_ROB_Stalls_Percent_5_Bucket_0: 1624063
Non-critical_ROB_Stalls_Percent_5_Bucket_0: 716013
Critical_ROB_Stalls_Percent_5_Bucket_1: 608888
Non-critical_ROB_Stalls_Percent_5_Bucket_1: 103805
Critical_ROB_Stalls_Percent_5_Bucket_2: 220390
Non-critical_ROB_Stalls_Percent_5_Bucket_2: 21366
Critical_ROB_Stalls_Percent_5_Bucket_3: 61438
Non-critical_ROB_Stalls_Percent_5_Bucket_3: 4567
Critical_ROB_Stalls_Percent_5_Bucket_4: 21628
Non-critical_ROB_Stalls_Percent_5_Bucket_4: 1757
Critical_ROB_Stalls_Percent_5_Bucket_5: 6843
Non-critical_ROB_Stalls_Percent_5_Bucket_5: 915
Critical_ROB_Stalls_Percent_5_Bucket_6: 6607
Non-critical_ROB_Stalls_Percent_5_Bucket_6: 651
Critical_ROB_Stalls_Percent_6_Bucket_0: 1771565
Non-critical_ROB_Stalls_Percent_6_Bucket_0: 568511
Critical_ROB_Stalls_Percent_6_Bucket_1: 625945
Non-critical_ROB_Stalls_Percent_6_Bucket_1: 86748
Critical_ROB_Stalls_Percent_6_Bucket_2: 225208
Non-critical_ROB_Stalls_Percent_6_Bucket_2: 16548
Critical_ROB_Stalls_Percent_6_Bucket_3: 61461
Non-critical_ROB_Stalls_Percent_6_Bucket_3: 4544
Critical_ROB_Stalls_Percent_6_Bucket_4: 21633
Non-critical_ROB_Stalls_Percent_6_Bucket_4: 1752
Critical_ROB_Stalls_Percent_6_Bucket_5: 6843
Non-critical_ROB_Stalls_Percent_6_Bucket_5: 915
Critical_ROB_Stalls_Percent_6_Bucket_6: 6607
Non-critical_ROB_Stalls_Percent_6_Bucket_6: 651
Critical_ROB_Stalls_Percent_7_Bucket_0: 1921308
Non-critical_ROB_Stalls_Percent_7_Bucket_0: 418768
Critical_ROB_Stalls_Percent_7_Bucket_1: 643880
Non-critical_ROB_Stalls_Percent_7_Bucket_1: 68813
Critical_ROB_Stalls_Percent_7_Bucket_2: 227379
Non-critical_ROB_Stalls_Percent_7_Bucket_2: 14377
Critical_ROB_Stalls_Percent_7_Bucket_3: 61565
Non-critical_ROB_Stalls_Percent_7_Bucket_3: 4440
Critical_ROB_Stalls_Percent_7_Bucket_4: 21665
Non-critical_ROB_Stalls_Percent_7_Bucket_4: 1720
Critical_ROB_Stalls_Percent_7_Bucket_5: 6847
Non-critical_ROB_Stalls_Percent_7_Bucket_5: 911
Critical_ROB_Stalls_Percent_7_Bucket_6: 6616
Non-critical_ROB_Stalls_Percent_7_Bucket_6: 642
Critical_ROB_Stalls_Percent_8_Bucket_0: 2074028
Non-critical_ROB_Stalls_Percent_8_Bucket_0: 266048
Critical_ROB_Stalls_Percent_8_Bucket_1: 656717
Non-critical_ROB_Stalls_Percent_8_Bucket_1: 55976
Critical_ROB_Stalls_Percent_8_Bucket_2: 229578
Non-critical_ROB_Stalls_Percent_8_Bucket_2: 12178
Critical_ROB_Stalls_Percent_8_Bucket_3: 62532
Non-critical_ROB_Stalls_Percent_8_Bucket_3: 3473
Critical_ROB_Stalls_Percent_8_Bucket_4: 22216
Non-critical_ROB_Stalls_Percent_8_Bucket_4: 1169
Critical_ROB_Stalls_Percent_8_Bucket_5: 7455
Non-critical_ROB_Stalls_Percent_8_Bucket_5: 303
Critical_ROB_Stalls_Percent_8_Bucket_6: 6729
Non-critical_ROB_Stalls_Percent_8_Bucket_6: 529
Average ROB occupancy Load Stall Begin: 37.5953
Average ROB occupancy Load Stall End: 46.1387
Min ROB occupancy Load Stall Begin: 1
Max ROB occupancy Load Stall Begin: 352
Min ROB occupancy Load Stall End: 1
Max ROB occupancy Load Stall End: 352
Average ROB occupancy Critical Load Stall Begin: 134.282
Average ROB occupancy Critical Load Stall End: 139.798
Min ROB occupancy Critical Load Stall Begin: 3
Max ROB occupancy Critical Load Stall Begin: 352
Min ROB occupancy Critical Load Stall End: 3
Max ROB occupancy Critical Load Stall End: 352
 ROB Load Stall Begin Bucket Count 0: 2608857
 ROB Load Stall End Bucket Count 0: 2340076
 ROB Critical Load Stall Begin Bucket Count 0: 6541
 ROB Critical Load Stall End Bucket Count 0: 5668
 ROB Load Stall Begin Bucket Count 1: 521395
 ROB Load Stall End Bucket Count 1: 712693
 ROB Critical Load Stall Begin Bucket Count 1: 21672
 ROB Critical Load Stall End Bucket Count 1: 19544
 ROB Load Stall Begin Bucket Count 2: 186310
 ROB Load Stall End Bucket Count 2: 241756
 ROB Critical Load Stall Begin Bucket Count 2: 34345
 ROB Critical Load Stall End Bucket Count 2: 34888
 ROB Load Stall Begin Bucket Count 3: 51716
 ROB Load Stall End Bucket Count 3: 66005
 ROB Critical Load Stall Begin Bucket Count 3: 10506
 ROB Critical Load Stall End Bucket Count 3: 12421
 ROB Load Stall Begin Bucket Count 4: 18077
 ROB Load Stall End Bucket Count 4: 23385
 ROB Critical Load Stall Begin Bucket Count 4: 5019
 ROB Critical Load Stall End Bucket Count 4: 5313
 ROB Load Stall Begin Bucket Count 5: 6092
 ROB Load Stall End Bucket Count 5: 7758
 ROB Critical Load Stall Begin Bucket Count 5: 2639
 ROB Critical Load Stall End Bucket Count 5: 2648
 ROB Load Stall Begin Bucket Count 6: 6484
 ROB Load Stall End Bucket Count 6: 7258
 ROB Critical Load Stall Begin Bucket Count 6: 5007
 ROB Critical Load Stall End Bucket Count 6: 5247
PIST Tag Read Accesses: 2487308
PIST Read Accesses: 1243654
PIST Tag Write Accesses: 2487308
PIST Write Accesses: 1243654
Criticality detector called times: 3313202
Max global_stall_cycles_count: 2226787
Threshold Modified: 1 times, factor: -1
Sturdy critical IP cache stats: 
 Unused entries: 0
CIC Tag Read Accesses: 0
CIC Read Accesses: 0
CIC Tag Write Accesses: 0
CIC Write Accesses: 0
Wobbly critical IP cache stats: 
 Unused entries: 123
CIC Tag Read Accesses: 84259982
CIC Read Accesses: 0
CIC Tag Write Accesses: 5
CIC Write Accesses: 0
ITLB TOTAL     ACCESS:   10395668  HIT:    9633813  MISS:     761855  HIT %:    92.6714  MISS %:    7.32858   MPKI: 15.2371
ITLB LOAD TRANSLATION ACCESS:    8205503  HIT:    8151771  MISS:      53732  HIT %:    99.3452  MISS %:   0.654829   MPKI: 1.07464
ITLB TRANSLATION FROM L1D PREFETCHER ACCESS:    2190165  HIT:    1482042  MISS:     708123  HIT %:    67.6681  MISS %:    32.3319   MPKI: 14.1625
ITLBprefetch_cycle_count: 0 prefetches_per_prefetch_cycle: -nan
ITLB PREFETCH  REQUESTED:          0  ISSUED:          0  USEFUL:     571009  USELESS:     137125
ITLB USEFUL LOAD PREFETCHES:     571009 PREFETCH ISSUED TO LOWER LEVEL:          0  ACCURACY: inf
ITLB TIMELY PREFETCHES:     571009 LATE PREFETCHES: 201 DROPPED PREFETCHES: 5624
ITLB PREFETCHES SAME FILL-ORIGIN LEVEL: 0 DIFFERENT FILL-ORIGIN LEVEL: 0
ITLB AVERAGE MISS LATENCY: 7666.98 cycles
ITLB RQ	ACCESS:   15942382	FORWARD:          0	MERGED:    5499147	TO_CACHE:   10443235

DTLB TOTAL     ACCESS:   11397584  HIT:   10839686  MISS:     557898  HIT %:    95.1051  MISS %:    4.89488   MPKI: 11.158
DTLB LOAD TRANSLATION ACCESS:   11397584  HIT:   10839686  MISS:     557898  HIT %:    95.1051  MISS %:    4.89488   MPKI: 11.158
DTLBprefetch_cycle_count: 0 prefetches_per_prefetch_cycle: -nan
DTLB PREFETCH  REQUESTED:          0  ISSUED:          0  USEFUL:          0  USELESS:          0
DTLB USEFUL LOAD PREFETCHES:          0 PREFETCH ISSUED TO LOWER LEVEL:          0  ACCURACY: -nan
DTLB TIMELY PREFETCHES:          0 LATE PREFETCHES: 0 DROPPED PREFETCHES: 0
DTLB PREFETCHES SAME FILL-ORIGIN LEVEL: 0 DIFFERENT FILL-ORIGIN LEVEL: 0
DTLB AVERAGE MISS LATENCY: 10.7984 cycles
DTLB RQ	ACCESS:   14923245	FORWARD:          0	MERGED:    3497945	TO_CACHE:   11425300

STLB TOTAL     ACCESS:    1319753  HIT:    1304606  MISS:      15147  HIT %:    98.8523  MISS %:    1.14771   MPKI: 0.30294
STLB LOAD TRANSLATION ACCESS:     611429  HIT:     597940  MISS:      13489  HIT %:    97.7939  MISS %:    2.20614   MPKI: 0.26978
STLB TRANSLATION FROM L1D PREFETCHER ACCESS:     708324  HIT:     706666  MISS:       1658  HIT %:    99.7659  MISS %:   0.234074   MPKI: 0.03316
STLBprefetch_cycle_count: 0 prefetches_per_prefetch_cycle: -nan
STLB PREFETCH  REQUESTED:          0  ISSUED:          0  USEFUL:       1430  USELESS:        220
STLB USEFUL LOAD PREFETCHES:       1430 PREFETCH ISSUED TO LOWER LEVEL:          0  ACCURACY: inf
STLB TIMELY PREFETCHES:       1430 LATE PREFETCHES: 0 DROPPED PREFETCHES: 5624
STLB PREFETCHES SAME FILL-ORIGIN LEVEL: 0 DIFFERENT FILL-ORIGIN LEVEL: 0
STLB AVERAGE MISS LATENCY: 71.4918 cycles
STLB RQ	ACCESS:    1325377	FORWARD:          0	MERGED:          0	TO_CACHE:    1325377

STLB Hit, L1D data hit: 0
STLB Hit, L2C data hit: 0
STLB Hit, LLC data hit: 0
STLB Hit, LLC data miss: 0
STLB STLB hints to L2: 0
L1D TOTAL     ACCESS:   14391889  HIT:   13153102  MISS:    1238787  HIT %:    91.3925  MISS %:    8.60754   MPKI: 24.7757
L1D LOAD      ACCESS:    7967435  HIT:    7031792  MISS:     935643  HIT %:    88.2567  MISS %:    11.7433   MPKI: 18.7129
L1D RFO       ACCESS:    6424454  HIT:    6121310  MISS:     303144  HIT %:    95.2814  MISS %:     4.7186   MPKI: 6.06288
L1Dprefetch_cycle_count: 0 prefetches_per_prefetch_cycle: -nan
L1D PREFETCH  REQUESTED:          0  ISSUED:          0  USEFUL:          0  USELESS:          0
L1D USEFUL LOAD PREFETCHES:          0 PREFETCH ISSUED TO LOWER LEVEL:          0  ACCURACY: -nan
L1D TIMELY PREFETCHES:          0 LATE PREFETCHES: 0 DROPPED PREFETCHES: 0
L1D PREFETCHES SAME FILL-ORIGIN LEVEL: 0 DIFFERENT FILL-ORIGIN LEVEL: 0
L1D AVERAGE MISS LATENCY: 22.5043 cycles
L1D RQ	ACCESS:   11358470	FORWARD:          0	MERGED:    3198099	TO_CACHE:    8008912
L1D WQ	ACCESS:    6987103	FORWARD:     151459	MERGED:      72770	TO_CACHE:    6914333

L1D UNIQUE REGIONS ACCESSED: 0
L1D REGIONS CONFLICTS: 0
L1D Cross Page Prefetch Requests: 0
L1D Same Page Prefetch Requests: 0
L1D ROI Sum of L1D PQ occupancy: 0
L1D PREFETCHES PUSHED FROM L2C: 0
L1I TOTAL     ACCESS:   15848521  HIT:   11475085  MISS:    4373436  HIT %:    72.4048  MISS %:    27.5952   MPKI: 87.4687
L1I LOAD      ACCESS:    9702528  HIT:    9619589  MISS:      82939  HIT %:    99.1452  MISS %:   0.854818   MPKI: 1.65878
L1I PREFETCH  ACCESS:    6145993  HIT:    1855496  MISS:    4290497  HIT %:    30.1903  MISS %:    69.8097   MPKI: 85.8099
L1Iprefetch_cycle_count: 0 prefetches_per_prefetch_cycle: inf
L1I PREFETCH  REQUESTED:    6363221  ISSUED:    6349937  USEFUL:    3050403  USELESS:    1240131
L1I USEFUL LOAD PREFETCHES:    3050403 PREFETCH ISSUED TO LOWER LEVEL:    4307653  ACCURACY: 70.8136
L1I TIMELY PREFETCHES:    3050403 LATE PREFETCHES: 16577 DROPPED PREFETCHES: 12164
L1I PREFETCHES SAME FILL-ORIGIN LEVEL: 4307653 DIFFERENT FILL-ORIGIN LEVEL: 0
L1I AVERAGE MISS LATENCY: 202645 cycles
L1I RQ	ACCESS:   13652121	FORWARD:          0	MERGED:    3938749	TO_CACHE:    9713372
L1I PQ	ACCESS:    6349937	FORWARD:          0	MERGED:     120927	TO_CACHE:    6229010

BTB TOTAL     ACCESS:    6108832  HIT:    4217936  MISS:    1890896  HIT %:    69.0465  MISS %:    30.9535   MPKI: 37.8179
BTB BRANCH_DIRECT_JUMP	ACCESS:     546483  HIT:     394596  MISS:     151887
BTB BRANCH_INDIRECT	ACCESS:     172433  HIT:     135681  MISS:      36752
BTB BRANCH_CONDITIONAL	ACCESS:    2972190  HIT:    2453638  MISS:     518552
BTB BRANCH_DIRECT_CALL	ACCESS:    1018497  HIT:     648526  MISS:     369971
BTB BRANCH_INDIRECT_CALL	ACCESS:     190373  HIT:     119425  MISS:      70948
BTB BRANCH_RETURN	ACCESS:    1208856  HIT:     466070  MISS:     742786
BTB BRANCH_OTHER ACCESS:          0  HIT:          0  MISS:          0

L2C TOTAL     ACCESS:    6240236  HIT:    5864388  MISS:     375848  HIT %:     93.977  MISS %:    6.02298   MPKI: 7.51696
L2C LOAD      ACCESS:    1001997  HIT:     870154  MISS:     131843  HIT %:     86.842  MISS %:     13.158   MPKI: 2.63686
L2C DATA LOAD MPKI: 2.47492
L2C INSTRUCTION LOAD MPKI: 0.16194
L2C RFO       ACCESS:     303145  HIT:     273890  MISS:      29255  HIT %:    90.3495  MISS %:     9.6505   MPKI: 0.5851
L2C PREFETCH  ACCESS:    4326972  HIT:    4136456  MISS:     190516  HIT %:     95.597  MISS %:    4.40299   MPKI: 3.81032
L2C DATA PREFETCH MPKI: 0.06612
L2C INSTRUCTION PREFETCH MPKI: 3.7442
L2C WRITEBACK ACCESS:     575921  HIT:     563615  MISS:      12306  HIT %:    97.8632  MISS %:    2.13675   MPKI: 0.24612
L2C LOAD TRANSLATION ACCESS:      20588  HIT:       9490  MISS:      11098  HIT %:    46.0948  MISS %:    53.9052   MPKI: 0.22196
L2C TRANSLATION FROM L1D PREFETCHER ACCESS:      11613  HIT:      10783  MISS:        830  HIT %:    92.8528  MISS %:    7.14716   MPKI: 0.0166
L2Cprefetch_cycle_count: 6867 prefetches_per_prefetch_cycle: 2.95588
L2C PREFETCH  REQUESTED:      20298  ISSUED:      20298  USEFUL:       4034  USELESS:     187259
L2C USEFUL LOAD PREFETCHES:       4034 PREFETCH ISSUED TO LOWER LEVEL:     190631  ACCURACY: 2.11613
L2C TIMELY PREFETCHES:       4034 LATE PREFETCHES: 115 DROPPED PREFETCHES: 0
L2C PREFETCHES SAME FILL-ORIGIN LEVEL: 3421 DIFFERENT FILL-ORIGIN LEVEL: 0
L2C AVERAGE MISS LATENCY: 43.4422 cycles
L2C RQ	ACCESS:    1337350	FORWARD:          0	MERGED:          0	TO_CACHE:    1337343
L2C WQ	ACCESS:     575921	FORWARD:          7	MERGED:          0	TO_CACHE:     575921
L2C PQ	ACCESS:    4327364	FORWARD:          0	MERGED:          0	TO_CACHE:    4327364

L2C Instructions Evicting Data 74540
L2C Translations Evicting Data 7117
L2C Data Evicting Data 82109
L2C Instructions Evicting Instructions 116865
L2C Translations Evicting Instructions 3853
L2C Data Evicting Instructions 67322
L2C Instructions Evicting Translations 3902
L2C Translations Evicting Translations 958
L2C Data Evicting Translations 6876
L2C Dense regions hint from L2: 0
PSCL5 TOTAL     ACCESS:      20771  HIT:      20771  MISS:          0  HIT %:        100  MISS %:          0   MPKI: 0
PSCL5 LOAD TRANSLATION ACCESS:      13489  HIT:      13489  MISS:          0  HIT %:        100  MISS %:          0   MPKI: 0
PSCL5 TRANSLATION FROM L1D PREFETCHER ACCESS:       7282  HIT:       7282  MISS:          0  HIT %:        100  MISS %:          0   MPKI: 0
PSCL5prefetch_cycle_count: 0 prefetches_per_prefetch_cycle: -nan
PSCL5 PREFETCH  REQUESTED:          0  ISSUED:          0  USEFUL:          0  USELESS:          0
PSCL5 USEFUL LOAD PREFETCHES:          0 PREFETCH ISSUED TO LOWER LEVEL:          0  ACCURACY: -nan
PSCL5 TIMELY PREFETCHES:          0 LATE PREFETCHES: 0 DROPPED PREFETCHES: 0
PSCL5 PREFETCHES SAME FILL-ORIGIN LEVEL: 0 DIFFERENT FILL-ORIGIN LEVEL: 0

PSCL4 TOTAL     ACCESS:      19552  HIT:      19365  MISS:        187  HIT %:    99.0436  MISS %:   0.956424   MPKI: 0.00374
PSCL4 LOAD TRANSLATION ACCESS:      12683  HIT:      12496  MISS:        187  HIT %:    98.5256  MISS %:    1.47441   MPKI: 0.00374
PSCL4 TRANSLATION FROM L1D PREFETCHER ACCESS:       6869  HIT:       6869  MISS:          0  HIT %:        100  MISS %:          0   MPKI: 0
PSCL4prefetch_cycle_count: 0 prefetches_per_prefetch_cycle: -nan
PSCL4 PREFETCH  REQUESTED:          0  ISSUED:          0  USEFUL:          0  USELESS:          0
PSCL4 USEFUL LOAD PREFETCHES:          0 PREFETCH ISSUED TO LOWER LEVEL:          0  ACCURACY: -nan
PSCL4 TIMELY PREFETCHES:          0 LATE PREFETCHES: 0 DROPPED PREFETCHES: 0
PSCL4 PREFETCHES SAME FILL-ORIGIN LEVEL: 0 DIFFERENT FILL-ORIGIN LEVEL: 0

PSCL3 TOTAL     ACCESS:      20627  HIT:      20437  MISS:        190  HIT %:    99.0789  MISS %:   0.921123   MPKI: 0.0038
PSCL3 LOAD TRANSLATION ACCESS:      13496  HIT:      13306  MISS:        190  HIT %:    98.5922  MISS %:    1.40782   MPKI: 0.0038
PSCL3 TRANSLATION FROM L1D PREFETCHER ACCESS:       7131  HIT:       7131  MISS:          0  HIT %:        100  MISS %:          0   MPKI: 0
PSCL3prefetch_cycle_count: 0 prefetches_per_prefetch_cycle: -nan
PSCL3 PREFETCH  REQUESTED:          0  ISSUED:          0  USEFUL:          0  USELESS:          0
PSCL3 USEFUL LOAD PREFETCHES:          0 PREFETCH ISSUED TO LOWER LEVEL:          0  ACCURACY: -nan
PSCL3 TIMELY PREFETCHES:          0 LATE PREFETCHES: 0 DROPPED PREFETCHES: 0
PSCL3 PREFETCHES SAME FILL-ORIGIN LEVEL: 0 DIFFERENT FILL-ORIGIN LEVEL: 0

PSCL2 TOTAL     ACCESS:      17381  HIT:       9835  MISS:       7546  HIT %:    56.5848  MISS %:    43.4152   MPKI: 0.15092
PSCL2 LOAD TRANSLATION ACCESS:      14224  HIT:       6678  MISS:       7546  HIT %:    46.9488  MISS %:    53.0512   MPKI: 0.15092
PSCL2 TRANSLATION FROM L1D PREFETCHER ACCESS:       3157  HIT:       3157  MISS:          0  HIT %:        100  MISS %:          0   MPKI: 0
PSCL2prefetch_cycle_count: 0 prefetches_per_prefetch_cycle: -nan
PSCL2 PREFETCH  REQUESTED:          0  ISSUED:          0  USEFUL:          0  USELESS:          0
PSCL2 USEFUL LOAD PREFETCHES:          0 PREFETCH ISSUED TO LOWER LEVEL:          0  ACCURACY: -nan
PSCL2 TIMELY PREFETCHES:          0 LATE PREFETCHES: 0 DROPPED PREFETCHES: 0
PSCL2 PREFETCHES SAME FILL-ORIGIN LEVEL: 0 DIFFERENT FILL-ORIGIN LEVEL: 0

LLC TOTAL     ACCESS:     403593  HIT:     365568  MISS:      38025  HIT %:    90.5784  MISS %:    9.42162   MPKI: 0.7605
LLC LOAD      ACCESS:     131728  HIT:     102169  MISS:      29559  HIT %:    77.5606  MISS %:    22.4394   MPKI: 0.59118
LLC RFO       ACCESS:      29255  HIT:      25098  MISS:       4157  HIT %:    85.7905  MISS %:    14.2095   MPKI: 0.08314
LLC PREFETCH  ACCESS:     190631  HIT:     187738  MISS:       2893  HIT %:    98.4824  MISS %:    1.51759   MPKI: 0.05786
LLC WRITEBACK ACCESS:      40051  HIT:      39746  MISS:        305  HIT %:    99.2385  MISS %:   0.761529   MPKI: 0.0061
LLC LOAD TRANSLATION ACCESS:      11098  HIT:      10004  MISS:       1094  HIT %:    90.1424  MISS %:    9.85763   MPKI: 0.02188
LLC TRANSLATION FROM L1D PREFETCHER ACCESS:        830  HIT:        813  MISS:         17  HIT %:    97.9518  MISS %:    2.04819   MPKI: 0.00034
LLCprefetch_cycle_count: 0 prefetches_per_prefetch_cycle: -nan
LLC PREFETCH  REQUESTED:          0  ISSUED:          0  USEFUL:        125  USELESS:       2615
LLC USEFUL LOAD PREFETCHES:        125 PREFETCH ISSUED TO LOWER LEVEL:       2893  ACCURACY: 4.32077
LLC TIMELY PREFETCHES:        125 LATE PREFETCHES: 0 DROPPED PREFETCHES: 0
LLC PREFETCHES SAME FILL-ORIGIN LEVEL: 0 DIFFERENT FILL-ORIGIN LEVEL: 0
LLC AVERAGE MISS LATENCY: 142.108 cycles
LLC RQ	ACCESS:     172911	FORWARD:          0	MERGED:          0	TO_CACHE:     172911
LLC WQ	ACCESS:      40051	FORWARD:          0	MERGED:          0	TO_CACHE:      40051
LLC PQ	ACCESS:     190631	FORWARD:          0	MERGED:          0	TO_CACHE:     190631

LLC Dense regions hint to LLC: 0

RAW hits: 1098937
Loads Generated: 12457407
Loads sent to L1D: 11358470
Stores Generated: 6987099
Stores sent to L1D: 6987103
Major fault: 0 Minor fault: 6261
Allocated PAGES: 6261
I-Shadow cache 408 bytes
Touched + WorthPF tables 6144 bytes 
MMA filter 174 bytes 
FNL filter 272 bytes 
TOTAL PREFETCHER STORAGE SIZE: 25174 bytes
CPU 0 L1I next line prefetcher final stats
total_pref_operate_instances_l2: 4095070
dynamic_config_counter_instances_l2_1: 3924682
dynamic_config_counter_instances_l2_2: 118485
dynamic_config_counter_instances_l2_3: 51903
dynamic_config_counter_instances_l2_4: 0
dynamic_config_counter_instances_l2_5: 0
[Bingo] PHT Access: 12601
[Bingo] PHT Hit PC+Addr: 5938
[Bingo] PHT Hit PC+Offs: 1135
[Bingo] PHT Miss: 5528
[Bingo] Prefetch PC+Addr: 0
[Bingo] Prefetch PC+Offs: 0
[Bingo] Useful PC+Addr: 0
[Bingo] Useful PC+Offs: 0
[Bingo] Useless PC+Addr: 0
[Bingo] Useless PC+Offs: 0
[Bingo] L1 Prefetch per Region: 0
[Bingo] L2 Prefetch per Region: 4.29987
[Bingo] L3 Prefetch per Region: 0
[Bingo] No Prefetch per Region: 27.7001
[Bingo] Number of Voters Mean: 2.37533
[Bingo] Number of Voters SD: 2.51517
PHT read accesses: 25927
PHT write accesses: 5768
AT read accesses: 26966
AT write accesses: 31234
FT read accesses: 17978
FT write accesses: 12601
PS read accesses: 14239
PS write accesses: 7073
PHT tag read accesses: 212103
PHT tag write accesses: 11706
AT tag read accesses: 6889383
AT tag write accesses: 32674
FT tag read accesses: 6752946
FT tag write accesses: 24748
PS tag read accesses: 845415
PS tag write accesses: 21312

DRAM Statistics
 CHANNEL 0
 RQ ROW_BUFFER_HIT:      12836  ROW_BUFFER_MISS:      24876
 DBUS_CONGESTED:          9
 WQ ROW_BUFFER_HIT:        843  ROW_BUFFER_MISS:       3025  FULL:          0

 AVG_CONGESTED_CYCLE: 5
 All warmup complete: 2
Channel 0 Bank busy for read cycles: 0
Channel 0 Bank busy for write cycles: 0
Channel 0
Rank 0
0banks busy for read cycles: 77510096
0banks busy for write cycles: 2168
1banks busy for read cycles: 2492920
1banks busy for write cycles: 525707
2banks busy for read cycles: 435639
2banks busy for write cycles: 166712
3banks busy for read cycles: 133313
3banks busy for write cycles: 66344
4banks busy for read cycles: 34313
4banks busy for write cycles: 41597
5banks busy for read cycles: 17000
5banks busy for write cycles: 16537
6banks busy for read cycles: 15770
6banks busy for write cycles: 9334
7banks busy for read cycles: 15606
7banks busy for write cycles: 3164
8banks busy for read cycles: 22938
8banks busy for write cycles: 5989

CPU 0 Branch Prediction Accuracy: 99.6894% MPKI: 0.58048 Average ROB Occupancy at Mispredict: 89.765
Branch types
NOT_BRANCH: 40655521 81.311%
BRANCH_DIRECT_JUMP: 546483 1.09297%
BRANCH_INDIRECT: 172433 0.344866%
BRANCH_CONDITIONAL: 6207554 12.4151%
BRANCH_DIRECT_CALL: 1018497 2.03699%
BRANCH_INDIRECT_CALL: 190373 0.380746%
BRANCH_RETURN: 1208856 2.41771%
BRANCH_OTHER: 0 0%

DRAM PAGES: 1048576
Allocated PAGES: 6261
