Initialize SIGNATURE TABLE
ST_SET: 1
ST_WAY: 256
ST_TAG_BIT: 16
ST_TAG_MASK: ffff

Initialize PATTERN TABLE
PT_SET: 512
PT_WAY: 4
SIG_DELTA_BIT: 7
C_SIG_BIT: 4
C_DELTA_BIT: 4

Initialize PREFETCH FILTER
FILTER_SET: 1024

Initialize PERCEPTRON
PERC_ENTRIES: 4096
PERC_FEATURES: 9

*** ChampSim Multicore Out-of-Order Simulator ***

Warmup Instructions: 50000000
Simulation Instructions: 50000000
Number of CPUs: 1
LLC sets: 2048
LLC ways: 16
Off-chip DRAM Size: 4096 MB Channels: 1 Width: 64-bit Data Rate: 6400 MT/s
CPU 0 runs ../IPC-traces//server_016.champsimtrace.xz
.xz
NUM_OF_IPS_IN_CRITICAL_IP_TRAINING: 64
NUM_OF_CRITICAL_IP_TRAINING_TABLE_WAYS: 2
NUM_OF_CRITICAL_IP_TRAINING_TABLE_SETS: 32
WOBBLY_CRITICAL_IP_CACHE_SETS: 32
WOBBLY_CRITICAL_IP_CACHE_WAYS: 4
BTB has LRU replacement policy
ITLB has LRU replacement policy
DTLB has LRU replacement policy
STLB has LRU replacement policy
CPU 0 L1I next line prefetcher
L1I has LRU replacement policy
L1D has LRU replacement policy
Initialize SRRIP state for L2C
Initialize DRRIP state for LLC
Heartbeat CPU 0 instructions: 10000000 cycles: 2875820 heartbeat IPC: 3.47727 cumulative IPC: 3.47727 (Simulation time: 0 hr 3 min 37 sec) 
Heartbeat CPU 0 instructions: 20000000 cycles: 5746061 heartbeat IPC: 3.48403 cumulative IPC: 3.48065 (Simulation time: 0 hr 6 min 25 sec) 
Heartbeat CPU 0 instructions: 30000001 cycles: 8613297 heartbeat IPC: 3.48768 cumulative IPC: 3.48299 (Simulation time: 0 hr 9 min 12 sec) 
Heartbeat CPU 0 instructions: 40000001 cycles: 11767261 heartbeat IPC: 3.17061 cumulative IPC: 3.39926 (Simulation time: 0 hr 10 min 21 sec) 
Heartbeat CPU 0 instructions: 50000002 cycles: 15002725 heartbeat IPC: 3.09075 cumulative IPC: 3.33273 (Simulation time: 0 hr 11 min 9 sec) 

Warmup complete CPU 0 instructions: 50000002 cycles: 15002725 (Simulation time: 0 hr 11 min 9 sec) 

% increase in all ip prefetch 344.213
% increase in all ip prefetch -0.0090097
Heartbeat CPU 0 instructions: 60000001 cycles: 29651443 heartbeat IPC: 0.682654 cumulative IPC: 0.682654 (Simulation time: 0 hr 13 min 6 sec) 
Heartbeat CPU 0 instructions: 70000001 cycles: 45591047 heartbeat IPC: 0.627368 cumulative IPC: 0.653844 (Simulation time: 0 hr 15 min 42 sec) 
Heartbeat CPU 0 instructions: 80000000 cycles: 61682213 heartbeat IPC: 0.621459 cumulative IPC: 0.642681 (Simulation time: 0 hr 18 min 16 sec) 
Heartbeat CPU 0 instructions: 90000000 cycles: 77331582 heartbeat IPC: 0.639003 cumulative IPC: 0.641757 (Simulation time: 0 hr 20 min 45 sec) 
Heartbeat CPU 0 instructions: 100000000 cycles: 93184172 heartbeat IPC: 0.630812 cumulative IPC: 0.639538 (Simulation time: 0 hr 23 min 17 sec) 
Finished CPU 0 instructions: 50000000 cycles: 78181448 cumulative IPC: 0.639538 (Simulation time: 0 hr 23 min 17 sec) 

ChampSim completed all CPUs

Region of Interest Statistics

CPU 0 cumulative IPC: 0.639538 instructions: 50000000 cycles: 78181448

CPU 0 Average Load ROB stall cycles: 2.01206e+07
CPU 0 Fraction of times ROB stalled by Loads: 38.0541
CPU 0 Percentage of Load stall cycles in Total stall cycles: 2.8307e+08
Issued all: 28644448
Issued LT all: 22401541
rob_not_full_when_issued_lt_all: 22106779
Issued LT one: 18223895
rob_not_full_when_issued_lt_one: 17967988
 Total stall cycles: 65045336
 Total load stall cycles: 184123917789033
CPU 0 NUM of IPS identified critical: 0
CPU 0 Num of Load IPs stalling ROB: 12079
Threshold modification factor: -1
Max PIST entries: 64
Min PIST entries: 0
Avg PIST entries: 29.7
Trouble in retire width: 0.880864
MaC = Marked as critical.
lt_50_percent_before_Mac: 0
gt_90_percent_before_Mac: 0
gt_75_percent_before_Mac: 0
gt_50_percent_before_Mac: 0
stall_proportion_bin_same_before_after: 0
stall_proportion_bin_lower_before_after: 0
stall_proportion_bin_upper_before_after: 0
average_stall_proportion_before: -nan
average_stall_proportion_after: -nan
Critical IP stalls, total frequency: 0
Non-critical IP stalls, total frequency: 3482343
Total Freq all stalling IPs: 3482343
stat_90_percent_critical_ip_stalls_freq: 3134279
stat_90_percent_non_critical_ip_stalls_freq: 348064
Critical_IP_ROB_Stalls_Bucket_0: 0
Non-critical_IP_ROB_Stalls_Bucket_0: 2552496
Critical_IP_ROB_Stalls_Bucket_1: 0
Non-critical_IP_ROB_Stalls_Bucket_1: 601718
Critical_IP_ROB_Stalls_Bucket_2: 0
Non-critical_IP_ROB_Stalls_Bucket_2: 238997
Critical_IP_ROB_Stalls_Bucket_3: 0
Non-critical_IP_ROB_Stalls_Bucket_3: 48023
Critical_IP_ROB_Stalls_Bucket_4: 0
Non-critical_IP_ROB_Stalls_Bucket_4: 15776
Critical_IP_ROB_Stalls_Bucket_5: 0
Non-critical_IP_ROB_Stalls_Bucket_5: 7826
Critical_IP_ROB_Stalls_Bucket_6: 0
Non-critical_IP_ROB_Stalls_Bucket_6: 17507
0 => IPs accounting for >50 percent of stalls, 1 => 55, 2 => 60, 3 => 65 and so on till 90.
percent50: 50.0338 num IPs:  167
percent55: 55.0243 num IPs: 288
percent60: 60.011 num IPs: 467
percent65: 65.0098 num IPs: 717
percent70: 70.0117 num IPs: 1029
percent75: 75.0068 num IPs: 1384
percent80: 80.0049 num IPs: 1834
percent85: 85.0075 num IPs: 2423
percent90: 90.0062 num IPs: 3097
Critical_ROB_Stalls_Percent_0_Bucket_0: 1193280
Non-critical_ROB_Stalls_Percent_0_Bucket_0: 1359216
Critical_ROB_Stalls_Percent_0_Bucket_1: 321661
Non-critical_ROB_Stalls_Percent_0_Bucket_1: 280057
Critical_ROB_Stalls_Percent_0_Bucket_2: 163675
Non-critical_ROB_Stalls_Percent_0_Bucket_2: 75322
Critical_ROB_Stalls_Percent_0_Bucket_3: 33772
Non-critical_ROB_Stalls_Percent_0_Bucket_3: 14251
Critical_ROB_Stalls_Percent_0_Bucket_4: 8845
Non-critical_ROB_Stalls_Percent_0_Bucket_4: 6931
Critical_ROB_Stalls_Percent_0_Bucket_5: 5683
Non-critical_ROB_Stalls_Percent_0_Bucket_5: 2143
Critical_ROB_Stalls_Percent_0_Bucket_6: 15434
Non-critical_ROB_Stalls_Percent_0_Bucket_6: 2073
Critical_ROB_Stalls_Percent_1_Bucket_0: 1279251
Non-critical_ROB_Stalls_Percent_1_Bucket_0: 1273245
Critical_ROB_Stalls_Percent_1_Bucket_1: 374378
Non-critical_ROB_Stalls_Percent_1_Bucket_1: 227340
Critical_ROB_Stalls_Percent_1_Bucket_2: 189138
Non-critical_ROB_Stalls_Percent_1_Bucket_2: 49859
Critical_ROB_Stalls_Percent_1_Bucket_3: 40092
Non-critical_ROB_Stalls_Percent_1_Bucket_3: 7931
Critical_ROB_Stalls_Percent_1_Bucket_4: 10778
Non-critical_ROB_Stalls_Percent_1_Bucket_4: 4998
Critical_ROB_Stalls_Percent_1_Bucket_5: 6489
Non-critical_ROB_Stalls_Percent_1_Bucket_5: 1337
Critical_ROB_Stalls_Percent_1_Bucket_6: 16012
Non-critical_ROB_Stalls_Percent_1_Bucket_6: 1495
Critical_ROB_Stalls_Percent_2_Bucket_0: 1401612
Non-critical_ROB_Stalls_Percent_2_Bucket_0: 1150884
Critical_ROB_Stalls_Percent_2_Bucket_1: 410095
Non-critical_ROB_Stalls_Percent_2_Bucket_1: 191623
Critical_ROB_Stalls_Percent_2_Bucket_2: 199523
Non-critical_ROB_Stalls_Percent_2_Bucket_2: 39474
Critical_ROB_Stalls_Percent_2_Bucket_3: 41852
Non-critical_ROB_Stalls_Percent_2_Bucket_3: 6171
Critical_ROB_Stalls_Percent_2_Bucket_4: 13594
Non-critical_ROB_Stalls_Percent_2_Bucket_4: 2182
Critical_ROB_Stalls_Percent_2_Bucket_5: 6926
Non-critical_ROB_Stalls_Percent_2_Bucket_5: 900
Critical_ROB_Stalls_Percent_2_Bucket_6: 16187
Non-critical_ROB_Stalls_Percent_2_Bucket_6: 1320
Critical_ROB_Stalls_Percent_3_Bucket_0: 1525562
Non-critical_ROB_Stalls_Percent_3_Bucket_0: 1026934
Critical_ROB_Stalls_Percent_3_Bucket_1: 447612
Non-critical_ROB_Stalls_Percent_3_Bucket_1: 154106
Critical_ROB_Stalls_Percent_3_Bucket_2: 209464
Non-critical_ROB_Stalls_Percent_3_Bucket_2: 29533
Critical_ROB_Stalls_Percent_3_Bucket_3: 43665
Non-critical_ROB_Stalls_Percent_3_Bucket_3: 4358
Critical_ROB_Stalls_Percent_3_Bucket_4: 14292
Non-critical_ROB_Stalls_Percent_3_Bucket_4: 1484
Critical_ROB_Stalls_Percent_3_Bucket_5: 7013
Non-critical_ROB_Stalls_Percent_3_Bucket_5: 813
Critical_ROB_Stalls_Percent_3_Bucket_6: 16259
Non-critical_ROB_Stalls_Percent_3_Bucket_6: 1248
Critical_ROB_Stalls_Percent_4_Bucket_0: 1664978
Non-critical_ROB_Stalls_Percent_4_Bucket_0: 887518
Critical_ROB_Stalls_Percent_4_Bucket_1: 476987
Non-critical_ROB_Stalls_Percent_4_Bucket_1: 124731
Critical_ROB_Stalls_Percent_4_Bucket_2: 214536
Non-critical_ROB_Stalls_Percent_4_Bucket_2: 24461
Critical_ROB_Stalls_Percent_4_Bucket_3: 43957
Non-critical_ROB_Stalls_Percent_4_Bucket_3: 4066
Critical_ROB_Stalls_Percent_4_Bucket_4: 14297
Non-critical_ROB_Stalls_Percent_4_Bucket_4: 1479
Critical_ROB_Stalls_Percent_4_Bucket_5: 7027
Non-critical_ROB_Stalls_Percent_4_Bucket_5: 799
Critical_ROB_Stalls_Percent_4_Bucket_6: 16260
Non-critical_ROB_Stalls_Percent_4_Bucket_6: 1247
Critical_ROB_Stalls_Percent_5_Bucket_0: 1796885
Non-critical_ROB_Stalls_Percent_5_Bucket_0: 755611
Critical_ROB_Stalls_Percent_5_Bucket_1: 511095
Non-critical_ROB_Stalls_Percent_5_Bucket_1: 90623
Critical_ROB_Stalls_Percent_5_Bucket_2: 221415
Non-critical_ROB_Stalls_Percent_5_Bucket_2: 17582
Critical_ROB_Stalls_Percent_5_Bucket_3: 44523
Non-critical_ROB_Stalls_Percent_5_Bucket_3: 3500
Critical_ROB_Stalls_Percent_5_Bucket_4: 14338
Non-critical_ROB_Stalls_Percent_5_Bucket_4: 1438
Critical_ROB_Stalls_Percent_5_Bucket_5: 7066
Non-critical_ROB_Stalls_Percent_5_Bucket_5: 760
Critical_ROB_Stalls_Percent_5_Bucket_6: 16659
Non-critical_ROB_Stalls_Percent_5_Bucket_6: 848
Critical_ROB_Stalls_Percent_6_Bucket_0: 1944065
Non-critical_ROB_Stalls_Percent_6_Bucket_0: 608431
Critical_ROB_Stalls_Percent_6_Bucket_1: 532590
Non-critical_ROB_Stalls_Percent_6_Bucket_1: 69128
Critical_ROB_Stalls_Percent_6_Bucket_2: 225718
Non-critical_ROB_Stalls_Percent_6_Bucket_2: 13279
Critical_ROB_Stalls_Percent_6_Bucket_3: 45320
Non-critical_ROB_Stalls_Percent_6_Bucket_3: 2703
Critical_ROB_Stalls_Percent_6_Bucket_4: 14488
Non-critical_ROB_Stalls_Percent_6_Bucket_4: 1288
Critical_ROB_Stalls_Percent_6_Bucket_5: 7098
Non-critical_ROB_Stalls_Percent_6_Bucket_5: 728
Critical_ROB_Stalls_Percent_6_Bucket_6: 16754
Non-critical_ROB_Stalls_Percent_6_Bucket_6: 753
Critical_ROB_Stalls_Percent_7_Bucket_0: 2093487
Non-critical_ROB_Stalls_Percent_7_Bucket_0: 459009
Critical_ROB_Stalls_Percent_7_Bucket_1: 551707
Non-critical_ROB_Stalls_Percent_7_Bucket_1: 50011
Critical_ROB_Stalls_Percent_7_Bucket_2: 230902
Non-critical_ROB_Stalls_Percent_7_Bucket_2: 8095
Critical_ROB_Stalls_Percent_7_Bucket_3: 45652
Non-critical_ROB_Stalls_Percent_7_Bucket_3: 2371
Critical_ROB_Stalls_Percent_7_Bucket_4: 14546
Non-critical_ROB_Stalls_Percent_7_Bucket_4: 1230
Critical_ROB_Stalls_Percent_7_Bucket_5: 7151
Non-critical_ROB_Stalls_Percent_7_Bucket_5: 675
Critical_ROB_Stalls_Percent_7_Bucket_6: 16782
Non-critical_ROB_Stalls_Percent_7_Bucket_6: 725
Critical_ROB_Stalls_Percent_8_Bucket_0: 2247354
Non-critical_ROB_Stalls_Percent_8_Bucket_0: 305142
Critical_ROB_Stalls_Percent_8_Bucket_1: 569038
Non-critical_ROB_Stalls_Percent_8_Bucket_1: 32680
Critical_ROB_Stalls_Percent_8_Bucket_2: 232787
Non-critical_ROB_Stalls_Percent_8_Bucket_2: 6210
Critical_ROB_Stalls_Percent_8_Bucket_3: 46235
Non-critical_ROB_Stalls_Percent_8_Bucket_3: 1788
Critical_ROB_Stalls_Percent_8_Bucket_4: 14927
Non-critical_ROB_Stalls_Percent_8_Bucket_4: 849
Critical_ROB_Stalls_Percent_8_Bucket_5: 7154
Non-critical_ROB_Stalls_Percent_8_Bucket_5: 672
Critical_ROB_Stalls_Percent_8_Bucket_6: 16784
Non-critical_ROB_Stalls_Percent_8_Bucket_6: 723
Average ROB occupancy Load Stall Begin: 34.7932
Average ROB occupancy Load Stall End: 42.7168
Min ROB occupancy Load Stall Begin: 1
Max ROB occupancy Load Stall Begin: 352
Min ROB occupancy Load Stall End: 1
Max ROB occupancy Load Stall End: 352
Average ROB occupancy Critical Load Stall Begin: -nan
Average ROB occupancy Critical Load Stall End: -nan
Min ROB occupancy Critical Load Stall Begin: 400
Max ROB occupancy Critical Load Stall Begin: 0
Min ROB occupancy Critical Load Stall End: 400
Max ROB occupancy Critical Load Stall End: 0
 ROB Load Stall Begin Bucket Count 0: 2750848
 ROB Load Stall End Bucket Count 0: 2552496
 ROB Critical Load Stall Begin Bucket Count 0: 0
 ROB Critical Load Stall End Bucket Count 0: 0
 ROB Load Stall Begin Bucket Count 1: 481525
 ROB Load Stall End Bucket Count 1: 601718
 ROB Critical Load Stall Begin Bucket Count 1: 0
 ROB Critical Load Stall End Bucket Count 1: 0
 ROB Load Stall Begin Bucket Count 2: 180136
 ROB Load Stall End Bucket Count 2: 238997
 ROB Critical Load Stall Begin Bucket Count 2: 0
 ROB Critical Load Stall End Bucket Count 2: 0
 ROB Load Stall Begin Bucket Count 3: 33238
 ROB Load Stall End Bucket Count 3: 48023
 ROB Critical Load Stall Begin Bucket Count 3: 0
 ROB Critical Load Stall End Bucket Count 3: 0
 ROB Load Stall Begin Bucket Count 4: 12829
 ROB Load Stall End Bucket Count 4: 15776
 ROB Critical Load Stall Begin Bucket Count 4: 0
 ROB Critical Load Stall End Bucket Count 4: 0
 ROB Load Stall Begin Bucket Count 5: 7162
 ROB Load Stall End Bucket Count 5: 7826
 ROB Critical Load Stall Begin Bucket Count 5: 0
 ROB Critical Load Stall End Bucket Count 5: 0
 ROB Load Stall Begin Bucket Count 6: 16606
 ROB Load Stall End Bucket Count 6: 17507
 ROB Critical Load Stall Begin Bucket Count 6: 0
 ROB Critical Load Stall End Bucket Count 6: 0
PIST Tag Read Accesses: 1944924
PIST Read Accesses: 972462
PIST Tag Write Accesses: 1944924
PIST Write Accesses: 972462
Criticality detector called times: 2698801
Max global_stall_cycles_count: 2018943
Threshold Modified: 1 times, factor: -1
Sturdy critical IP cache stats: 
 Unused entries: 0
CIC Tag Read Accesses: 0
CIC Read Accesses: 0
CIC Tag Write Accesses: 0
CIC Write Accesses: 0
Wobbly critical IP cache stats: 
 Unused entries: 110
CIC Tag Read Accesses: 78934850
CIC Read Accesses: 0
CIC Tag Write Accesses: 20
CIC Write Accesses: 0
ITLB TOTAL     ACCESS:   10315091  HIT:    9797648  MISS:     517443  HIT %:    94.9836  MISS %:    5.01637   MPKI: 10.3489
ITLB LOAD TRANSLATION ACCESS:    8794283  HIT:    8715550  MISS:      78733  HIT %:    99.1047  MISS %:   0.895275   MPKI: 1.57466
ITLB TRANSLATION FROM L1D PREFETCHER ACCESS:    1520808  HIT:    1082098  MISS:     438710  HIT %:    71.1528  MISS %:    28.8472   MPKI: 8.7742
ITLB PREFETCH  REQUESTED:          0  ISSUED:          0  USEFUL:     342304  USELESS:      96407
ITLB USEFUL LOAD PREFETCHES:     342304 PREFETCH ISSUED TO LOWER LEVEL:          0  ACCURACY: inf
ITLB TIMELY PREFETCHES:     342304 LATE PREFETCHES: 311 DROPPED PREFETCHES: 2809
ITLB PREFETCHES SAME FILL-ORIGIN LEVEL: 0 DIFFERENT FILL-ORIGIN LEVEL: 0
ITLB AVERAGE MISS LATENCY: 35092.9 cycles
ITLB RQ	ACCESS:   14231794	FORWARD:          0	MERGED:    3878722	TO_CACHE:   10353072

DTLB TOTAL     ACCESS:   10186263  HIT:    9802616  MISS:     383647  HIT %:    96.2337  MISS %:    3.76632   MPKI: 7.67294
DTLB LOAD TRANSLATION ACCESS:   10186263  HIT:    9802616  MISS:     383647  HIT %:    96.2337  MISS %:    3.76632   MPKI: 7.67294
DTLB PREFETCH  REQUESTED:          0  ISSUED:          0  USEFUL:          0  USELESS:          0
DTLB USEFUL LOAD PREFETCHES:          0 PREFETCH ISSUED TO LOWER LEVEL:          0  ACCURACY: -nan
DTLB TIMELY PREFETCHES:          0 LATE PREFETCHES: 0 DROPPED PREFETCHES: 0
DTLB PREFETCHES SAME FILL-ORIGIN LEVEL: 0 DIFFERENT FILL-ORIGIN LEVEL: 0
DTLB AVERAGE MISS LATENCY: 9.38939 cycles
DTLB RQ	ACCESS:   13092790	FORWARD:          0	MERGED:    2884376	TO_CACHE:   10208414

STLB TOTAL     ACCESS:     901090  HIT:     899058  MISS:       2032  HIT %:    99.7745  MISS %:   0.225505   MPKI: 0.04064
STLB LOAD TRANSLATION ACCESS:     462069  HIT:     460183  MISS:       1886  HIT %:    99.5918  MISS %:   0.408164   MPKI: 0.03772
STLB TRANSLATION FROM L1D PREFETCHER ACCESS:     439021  HIT:     438875  MISS:        146  HIT %:    99.9667  MISS %:  0.0332558   MPKI: 0.00292
STLB PREFETCH  REQUESTED:          0  ISSUED:          0  USEFUL:        130  USELESS:         16
STLB USEFUL LOAD PREFETCHES:        130 PREFETCH ISSUED TO LOWER LEVEL:          0  ACCURACY: inf
STLB TIMELY PREFETCHES:        130 LATE PREFETCHES: 0 DROPPED PREFETCHES: 2809
STLB PREFETCHES SAME FILL-ORIGIN LEVEL: 0 DIFFERENT FILL-ORIGIN LEVEL: 0
STLB AVERAGE MISS LATENCY: 77.9887 cycles
STLB RQ	ACCESS:     903899	FORWARD:          0	MERGED:          0	TO_CACHE:     903899

STLB Hit, L1D data hit: 0
STLB Hit, L2C data hit: 0
STLB Hit, LLC data hit: 0
STLB Hit, LLC data miss: 0
STLB STLB hints to L2: 0
L1D TOTAL     ACCESS:   12693372  HIT:   11864888  MISS:     828484  HIT %:    93.4731  MISS %:     6.5269   MPKI: 16.5697
L1D LOAD      ACCESS:    7418989  HIT:    6817986  MISS:     601003  HIT %:    91.8991  MISS %:    8.10087   MPKI: 12.0201
L1D RFO       ACCESS:    5274383  HIT:    5046902  MISS:     227481  HIT %:    95.6871  MISS %:    4.31294   MPKI: 4.54962
L1D PREFETCH  REQUESTED:          0  ISSUED:          0  USEFUL:          0  USELESS:          0
L1D USEFUL LOAD PREFETCHES:          0 PREFETCH ISSUED TO LOWER LEVEL:          0  ACCURACY: -nan
L1D TIMELY PREFETCHES:          0 LATE PREFETCHES: 0 DROPPED PREFETCHES: 0
L1D PREFETCHES SAME FILL-ORIGIN LEVEL: 0 DIFFERENT FILL-ORIGIN LEVEL: 0
L1D AVERAGE MISS LATENCY: 25.5389 cycles
L1D RQ	ACCESS:   10331506	FORWARD:          0	MERGED:    2772512	TO_CACHE:    7450401
L1D WQ	ACCESS:    5697707	FORWARD:     108593	MERGED:      55318	TO_CACHE:    5642389

L1D UNIQUE REGIONS ACCESSED: 0
L1D REGIONS CONFLICTS: 0
L1D Cross Page Prefetch Requests: 0
L1D Same Page Prefetch Requests: 0
L1D ROI Sum of L1D PQ occupancy: 0
L1D PREFETCHES PUSHED FROM L2C: 0
L1I TOTAL     ACCESS:   14104458  HIT:   10968316  MISS:    3136142  HIT %:    77.7649  MISS %:    22.2351   MPKI: 62.7228
L1I LOAD      ACCESS:    9935595  HIT:    9700779  MISS:     234816  HIT %:    97.6366  MISS %:    2.36338   MPKI: 4.69632
L1I PREFETCH  ACCESS:    4168863  HIT:    1267537  MISS:    2901326  HIT %:    30.4049  MISS %:    69.5951   MPKI: 58.0265
L1I PREFETCH  REQUESTED:    4386849  ISSUED:    4373317  USEFUL:    1944020  USELESS:     957253
L1I USEFUL LOAD PREFETCHES:    1944020 PREFETCH ISSUED TO LOWER LEVEL:    2930734  ACCURACY: 66.3322
L1I TIMELY PREFETCHES:    1944020 LATE PREFETCHES: 29402 DROPPED PREFETCHES: 6796
L1I PREFETCHES SAME FILL-ORIGIN LEVEL: 2930734 DIFFERENT FILL-ORIGIN LEVEL: 0
L1I AVERAGE MISS LATENCY: 561512 cycles
L1I RQ	ACCESS:   13361374	FORWARD:          0	MERGED:    3404931	TO_CACHE:    9956443
L1I PQ	ACCESS:    4373317	FORWARD:          0	MERGED:      97966	TO_CACHE:    4275351

BTB TOTAL     ACCESS:    6534034  HIT:    5095597  MISS:    1438437  HIT %:    77.9855  MISS %:    22.0145   MPKI: 28.7687
BTB BRANCH_DIRECT_JUMP	ACCESS:     487044  HIT:     364834  MISS:     122210
BTB BRANCH_INDIRECT	ACCESS:     169158  HIT:     142414  MISS:      26744
BTB BRANCH_CONDITIONAL	ACCESS:    4098719  HIT:    3717570  MISS:     381149
BTB BRANCH_DIRECT_CALL	ACCESS:     755585  HIT:     471450  MISS:     284135
BTB BRANCH_INDIRECT_CALL	ACCESS:     133962  HIT:      76124  MISS:      57838
BTB BRANCH_RETURN	ACCESS:     889566  HIT:     323205  MISS:     566361
BTB BRANCH_OTHER ACCESS:          0  HIT:          0  MISS:          0

L2C TOTAL     ACCESS:    4362994  HIT:    3932179  MISS:     430815  HIT %:    90.1257  MISS %:     9.8743   MPKI: 8.6163
L2C LOAD      ACCESS:     806375  HIT:     669107  MISS:     137268  HIT %:    82.9772  MISS %:    17.0228   MPKI: 2.74536
L2C DATA LOAD MPKI: 2.18762
L2C INSTRUCTION LOAD MPKI: 0.55774
L2C RFO       ACCESS:     227477  HIT:     176736  MISS:      50741  HIT %:     77.694  MISS %:     22.306   MPKI: 1.01482
L2C PREFETCH  ACCESS:    2935803  HIT:    2713110  MISS:     222693  HIT %:    92.4146  MISS %:    7.58542   MPKI: 4.45386
L2C DATA PREFETCH MPKI: 0.06632
L2C INSTRUCTION PREFETCH MPKI: 4.38754
L2C WRITEBACK ACCESS:     386391  HIT:     368028  MISS:      18363  HIT %:    95.2476  MISS %:    4.75244   MPKI: 0.36726
L2C LOAD TRANSLATION ACCESS:       2103  HIT:        588  MISS:       1515  HIT %:    27.9601  MISS %:    72.0399   MPKI: 0.0303
L2C TRANSLATION FROM L1D PREFETCHER ACCESS:       4845  HIT:       4610  MISS:        235  HIT %:    95.1496  MISS %:    4.85036   MPKI: 0.0047
L2C PREFETCH  REQUESTED:       6219  ISSUED:       6219  USEFUL:       9476  USELESS:     212174
L2C USEFUL LOAD PREFETCHES:       9476 PREFETCH ISSUED TO LOWER LEVEL:     223639  ACCURACY: 4.23719
L2C TIMELY PREFETCHES:       9476 LATE PREFETCHES: 542 DROPPED PREFETCHES: 0
L2C PREFETCHES SAME FILL-ORIGIN LEVEL: 3858 DIFFERENT FILL-ORIGIN LEVEL: 404
L2C AVERAGE MISS LATENCY: 38.3842 cycles
L2C RQ	ACCESS:    1040846	FORWARD:          0	MERGED:          0	TO_CACHE:    1040800
L2C WQ	ACCESS:     386391	FORWARD:         46	MERGED:          0	TO_CACHE:     386391
L2C PQ	ACCESS:    2936953	FORWARD:          0	MERGED:         18	TO_CACHE:    2936935

L2C Instructions Evicting Data 99726
L2C Translations Evicting Data 1086
L2C Data Evicting Data 75997
L2C Instructions Evicting Instructions 146828
L2C Translations Evicting Instructions 648
L2C Data Evicting Instructions 86423
L2C Instructions Evicting Translations 710
L2C Translations Evicting Translations 16
L2C Data Evicting Translations 1018
L2C Dense regions hint from L2: 0
PSCL5 TOTAL     ACCESS:       4841  HIT:       4841  MISS:          0  HIT %:        100  MISS %:          0   MPKI: 0
PSCL5 LOAD TRANSLATION ACCESS:       1886  HIT:       1886  MISS:          0  HIT %:        100  MISS %:          0   MPKI: 0
PSCL5 TRANSLATION FROM L1D PREFETCHER ACCESS:       2955  HIT:       2955  MISS:          0  HIT %:        100  MISS %:          0   MPKI: 0
PSCL5 PREFETCH  REQUESTED:          0  ISSUED:          0  USEFUL:          0  USELESS:          0
PSCL5 USEFUL LOAD PREFETCHES:          0 PREFETCH ISSUED TO LOWER LEVEL:          0  ACCURACY: -nan
PSCL5 TIMELY PREFETCHES:          0 LATE PREFETCHES: 0 DROPPED PREFETCHES: 0
PSCL5 PREFETCHES SAME FILL-ORIGIN LEVEL: 0 DIFFERENT FILL-ORIGIN LEVEL: 0

PSCL4 TOTAL     ACCESS:       4536  HIT:       4524  MISS:         12  HIT %:    99.7354  MISS %:    0.26455   MPKI: 0.00024
PSCL4 LOAD TRANSLATION ACCESS:       1669  HIT:       1657  MISS:         12  HIT %:     99.281  MISS %:   0.718993   MPKI: 0.00024
PSCL4 TRANSLATION FROM L1D PREFETCHER ACCESS:       2867  HIT:       2867  MISS:          0  HIT %:        100  MISS %:          0   MPKI: 0
PSCL4 PREFETCH  REQUESTED:          0  ISSUED:          0  USEFUL:          0  USELESS:          0
PSCL4 USEFUL LOAD PREFETCHES:          0 PREFETCH ISSUED TO LOWER LEVEL:          0  ACCURACY: -nan
PSCL4 TIMELY PREFETCHES:          0 LATE PREFETCHES: 0 DROPPED PREFETCHES: 0
PSCL4 PREFETCHES SAME FILL-ORIGIN LEVEL: 0 DIFFERENT FILL-ORIGIN LEVEL: 0

PSCL3 TOTAL     ACCESS:       4711  HIT:       4699  MISS:         12  HIT %:    99.7453  MISS %:   0.254723   MPKI: 0.00024
PSCL3 LOAD TRANSLATION ACCESS:       1844  HIT:       1832  MISS:         12  HIT %:    99.3492  MISS %:   0.650759   MPKI: 0.00024
PSCL3 TRANSLATION FROM L1D PREFETCHER ACCESS:       2867  HIT:       2867  MISS:          0  HIT %:        100  MISS %:          0   MPKI: 0
PSCL3 PREFETCH  REQUESTED:          0  ISSUED:          0  USEFUL:          0  USELESS:          0
PSCL3 USEFUL LOAD PREFETCHES:          0 PREFETCH ISSUED TO LOWER LEVEL:          0  ACCURACY: -nan
PSCL3 TIMELY PREFETCHES:          0 LATE PREFETCHES: 0 DROPPED PREFETCHES: 0
PSCL3 PREFETCHES SAME FILL-ORIGIN LEVEL: 0 DIFFERENT FILL-ORIGIN LEVEL: 0

PSCL2 TOTAL     ACCESS:       3090  HIT:       2866  MISS:        224  HIT %:    92.7508  MISS %:    7.24919   MPKI: 0.00448
PSCL2 LOAD TRANSLATION ACCESS:       1911  HIT:       1687  MISS:        224  HIT %:    88.2784  MISS %:    11.7216   MPKI: 0.00448
PSCL2 TRANSLATION FROM L1D PREFETCHER ACCESS:       1179  HIT:       1179  MISS:          0  HIT %:        100  MISS %:          0   MPKI: 0
PSCL2 PREFETCH  REQUESTED:          0  ISSUED:          0  USEFUL:          0  USELESS:          0
PSCL2 USEFUL LOAD PREFETCHES:          0 PREFETCH ISSUED TO LOWER LEVEL:          0  ACCURACY: -nan
PSCL2 TIMELY PREFETCHES:          0 LATE PREFETCHES: 0 DROPPED PREFETCHES: 0
PSCL2 PREFETCHES SAME FILL-ORIGIN LEVEL: 0 DIFFERENT FILL-ORIGIN LEVEL: 0

LLC TOTAL     ACCESS:     486218  HIT:     458992  MISS:      27226  HIT %:    94.4005  MISS %:    5.59955   MPKI: 0.54452
LLC LOAD      ACCESS:     136725  HIT:     125663  MISS:      11062  HIT %:    91.9093  MISS %:    8.09069   MPKI: 0.22124
LLC RFO       ACCESS:      50741  HIT:      36166  MISS:      14575  HIT %:    71.2757  MISS %:    28.7243   MPKI: 0.2915
LLC PREFETCH  ACCESS:     223639  HIT:     222546  MISS:       1093  HIT %:    99.5113  MISS %:   0.488734   MPKI: 0.02186
LLC WRITEBACK ACCESS:      73363  HIT:      73021  MISS:        342  HIT %:    99.5338  MISS %:   0.466175   MPKI: 0.00684
LLC LOAD TRANSLATION ACCESS:       1515  HIT:       1375  MISS:        140  HIT %:    90.7591  MISS %:    9.24092   MPKI: 0.0028
LLC TRANSLATION FROM L1D PREFETCHER ACCESS:        235  HIT:        221  MISS:         14  HIT %:    94.0426  MISS %:    5.95745   MPKI: 0.00028
LLC PREFETCH  REQUESTED:          0  ISSUED:          0  USEFUL:        944  USELESS:       7362
LLC USEFUL LOAD PREFETCHES:        944 PREFETCH ISSUED TO LOWER LEVEL:       1093  ACCURACY: 86.3678
LLC TIMELY PREFETCHES:        944 LATE PREFETCHES: 0 DROPPED PREFETCHES: 0
LLC PREFETCHES SAME FILL-ORIGIN LEVEL: 10 DIFFERENT FILL-ORIGIN LEVEL: 0
LLC AVERAGE MISS LATENCY: 152.42 cycles
LLC RQ	ACCESS:     189217	FORWARD:          0	MERGED:          0	TO_CACHE:     189216
LLC WQ	ACCESS:      73363	FORWARD:          1	MERGED:          0	TO_CACHE:      73363
LLC PQ	ACCESS:     223639	FORWARD:          0	MERGED:          0	TO_CACHE:     223639

LLC Dense regions hint to LLC: 0

RAW hits: 800804
Loads Generated: 11132312
Loads sent to L1D: 10331506
Stores Generated: 5697707
Stores sent to L1D: 5697707
Major fault: 0 Minor fault: 2472
Allocated PAGES: 2472
I-Shadow cache 408 bytes
Touched + WorthPF tables 6144 bytes 
MMA filter 174 bytes 
FNL filter 272 bytes 
TOTAL PREFETCHER STORAGE SIZE: 25174 bytes
CPU 0 L1I next line prefetcher final stats
------------------
Depth Distribution
------------------
depth 0: 114055
depth 1: 6021439
depth 2: 216598
depth 3: 23968
depth 4: 1191
depth 5: 1034
depth 6: 804
depth 7: 930
depth 8: 1103
depth 9: 1918
depth 10: 315
depth 11: 963
depth 12: 343
depth 13: 87
depth 14: 67
depth 15: 0
depth 16: 0
depth 17: 0
depth 18: 0
depth 19: 0
depth 20: 0
depth 21: 0
depth 22: 0
depth 23: 0
depth 24: 0
depth 25: 0
depth 26: 0
depth 27: 0
depth 28: 0
depth 29: 0
Total: 6384815
------------------
ST read accesses: 3059253
ST write accesses: 469309
PT read accesses: 40514552
PT write accesses: 4104587
FILTER read accesses: 12404282
FILTER write accesses: 968675
GHR read accesses: 6861803
GHR write accesses: 431921
PERC read accesses: 254685060
PERC write accesses: 90927
GHR counter read accesses: 7057124
GHR counter write accesses: 8287917
GHR ip read accesses: 10817727
GHR ip write accesses: 14114248
ST tag read accesses: 1598672954
ST tag write accesses: 173524391

DRAM Statistics
 CHANNEL 0
 RQ ROW_BUFFER_HIT:      10194  ROW_BUFFER_MISS:      16686
 DBUS_CONGESTED:          2
 WQ ROW_BUFFER_HIT:       1339  ROW_BUFFER_MISS:      10875  FULL:          0

 AVG_CONGESTED_CYCLE: 5
 All warmup complete: 2
Channel 0 Bank busy for read cycles: 0
Channel 0 Bank busy for write cycles: 0
Channel 0
Rank 0
0banks busy for read cycles: 75356237
0banks busy for write cycles: 2973
1banks busy for read cycles: 1351398
1banks busy for write cycles: 430652
2banks busy for read cycles: 149446
2banks busy for write cycles: 162437
3banks busy for read cycles: 59323
3banks busy for write cycles: 115882
4banks busy for read cycles: 30807
4banks busy for write cycles: 95071
5banks busy for read cycles: 24523
5banks busy for write cycles: 89682
6banks busy for read cycles: 26540
6banks busy for write cycles: 67057
7banks busy for read cycles: 32274
7banks busy for write cycles: 52261
8banks busy for read cycles: 71229
8banks busy for write cycles: 63657

CPU 0 Branch Prediction Accuracy: 99.7225% MPKI: 0.50376 Average ROB Occupancy at Mispredict: 59.9189
Branch types
NOT_BRANCH: 40923872 81.8477%
BRANCH_DIRECT_JUMP: 487044 0.974088%
BRANCH_INDIRECT: 169158 0.338316%
BRANCH_CONDITIONAL: 6640823 13.2816%
BRANCH_DIRECT_CALL: 755585 1.51117%
BRANCH_INDIRECT_CALL: 133962 0.267924%
BRANCH_RETURN: 889566 1.77913%
BRANCH_OTHER: 0 0%

DRAM PAGES: 1048576
Allocated PAGES: 2472
