
*** ChampSim Multicore Out-of-Order Simulator ***

Warmup Instructions: 50000000
Simulation Instructions: 50000000
Number of CPUs: 1
LLC sets: 2048
LLC ways: 16
Off-chip DRAM Size: 4096 MB Channels: 1 Width: 64-bit Data Rate: 6400 MT/s
CPU 0 runs ../IPC-traces//server_034.champsimtrace.xz
.xz
BTB has LRU replacement policy
ITLB has LRU replacement policy
DTLB has LRU replacement policy
STLB has LRU replacement policy
CPU 0 L1I next line prefetcher
L1I has LRU replacement policy
IP Table Entries: 64
L1D has LRU replacement policy
Initialize SRRIP state for L2C
Initialize DRRIP state for LLC
Heartbeat CPU 0 instructions: 10000000 cycles: 2757508 heartbeat IPC: 3.62646 cumulative IPC: 3.62646 (Simulation time: 0 hr 3 min 10 sec) 
Heartbeat CPU 0 instructions: 20000000 cycles: 5509280 heartbeat IPC: 3.63402 cumulative IPC: 3.63024 (Simulation time: 0 hr 5 min 47 sec) 
Heartbeat CPU 0 instructions: 30000003 cycles: 8261327 heartbeat IPC: 3.63366 cumulative IPC: 3.63138 (Simulation time: 0 hr 8 min 26 sec) 
Heartbeat CPU 0 instructions: 40000001 cycles: 11013835 heartbeat IPC: 3.63305 cumulative IPC: 3.6318 (Simulation time: 0 hr 10 min 41 sec) 
Heartbeat CPU 0 instructions: 50000000 cycles: 13767132 heartbeat IPC: 3.63201 cumulative IPC: 3.63184 (Simulation time: 0 hr 12 min 45 sec) 

Warmup complete CPU 0 instructions: 50000002 cycles: 13767133 (Simulation time: 0 hr 12 min 45 sec) 

Heartbeat CPU 0 instructions: 60000002 cycles: 26316209 heartbeat IPC: 0.796872 cumulative IPC: 0.796871 (Simulation time: 0 hr 15 min 12 sec) 
Heartbeat CPU 0 instructions: 70000003 cycles: 38877823 heartbeat IPC: 0.796076 cumulative IPC: 0.796474 (Simulation time: 0 hr 17 min 35 sec) 
Heartbeat CPU 0 instructions: 80000001 cycles: 51397702 heartbeat IPC: 0.79873 cumulative IPC: 0.797224 (Simulation time: 0 hr 19 min 58 sec) 
Heartbeat CPU 0 instructions: 90000002 cycles: 63917385 heartbeat IPC: 0.798742 cumulative IPC: 0.797603 (Simulation time: 0 hr 22 min 21 sec) 
Heartbeat CPU 0 instructions: 100000003 cycles: 76494634 heartbeat IPC: 0.795087 cumulative IPC: 0.797099 (Simulation time: 0 hr 24 min 45 sec) 
Finished CPU 0 instructions: 50000001 cycles: 62727501 cumulative IPC: 0.797099 (Simulation time: 0 hr 24 min 45 sec) 

ChampSim completed all CPUs

Region of Interest Statistics

CPU 0 cumulative IPC: 0.797099 instructions: 50000001 cycles: 62727501

CPU 0 Average Load ROB stall cycles: 1.6436e+07
CPU 0 Fraction of times ROB stalled by Loads: 36.4127
CPU 0 Percentage of Load stall cycles in Total stall cycles: 2.51786e+08
Issued all: 26254184
Issued LT all: 20471882
rob_not_full_when_issued_lt_all: 20209856
Issued LT one: 15393847
rob_not_full_when_issued_lt_one: 15172622
FVP critical_dynamic_instances_0: 885967
FVP unique_critical_ips_0: 2918
 Total stall cycles: 50792788
 Total load stall cycles: 127888881155526
Unique Load IPs: 8292
CPU 0 NUM of IPS identified critical: 0
CPU 0 Num of Load IPs stalling ROB: 0
Threshold modification factor: 0
Trouble in retire width: -nan
MaC = Marked as critical.
lt_50_percent_before_Mac: 0
gt_90_percent_before_Mac: 0
gt_75_percent_before_Mac: 0
gt_50_percent_before_Mac: 0
stall_proportion_bin_same_before_after: 0
stall_proportion_bin_lower_before_after: 0
stall_proportion_bin_upper_before_after: 0
average_stall_proportion_before: -nan
average_stall_proportion_after: -nan
Critical IP stalls, total frequency: 0
Non-critical IP stalls, total frequency: 0
Total Freq all stalling IPs: 0
Critical_IP_Detector_Accuracy_70: 0.0003427
Critical_IP_Detector_Accuracy_80: 0.0003427
Critical_IP_Detector_Accuracy_90: 0.0003427
Critical_IP_Detector_Coverage_70: 1
Critical_IP_Detector_Coverage_80: 1
Critical_IP_Detector_Coverage_90: 1
stat_90_percent_critical_ip_stalls_freq: 33096
stat_90_percent_non_critical_ip_stalls_freq: 18446744073709518520
AVERAGE_ROB_Occupancy_90_Percent_Critical_IP_Stalls: 16.9951
AVERAGE_ROB_Occupancy_90_Percent_Non_Critical_IP_Stalls: 8.43943e-12
Critical_IP_ROB_Stalls_Bucket_0: 0
Non-critical_IP_ROB_Stalls_Bucket_0: 1602369
Critical_IP_ROB_Stalls_Bucket_1: 0
Non-critical_IP_ROB_Stalls_Bucket_1: 865496
Critical_IP_ROB_Stalls_Bucket_2: 0
Non-critical_IP_ROB_Stalls_Bucket_2: 273999
Critical_IP_ROB_Stalls_Bucket_3: 0
Non-critical_IP_ROB_Stalls_Bucket_3: 64055
Critical_IP_ROB_Stalls_Bucket_4: 0
Non-critical_IP_ROB_Stalls_Bucket_4: 8417
Critical_IP_ROB_Stalls_Bucket_5: 0
Non-critical_IP_ROB_Stalls_Bucket_5: 3795
Critical_IP_ROB_Stalls_Bucket_6: 0
Non-critical_IP_ROB_Stalls_Bucket_6: 15155
0 => IPs accounting for >50 percent of stalls, 1 => 55, 2 => 60, 3 => 65 and so on till 90.
percent50: inf num IPs:  1
percent55: inf num IPs: 1
percent60: inf num IPs: 1
percent65: inf num IPs: 1
percent70: inf num IPs: 1
percent75: inf num IPs: 1
percent80: inf num IPs: 1
percent85: inf num IPs: 1
percent90: inf num IPs: 1
Critical_ROB_Stalls_Percent_0_Bucket_0: 32620
Non-critical_ROB_Stalls_Percent_0_Bucket_0: 1569749
Critical_ROB_Stalls_Percent_0_Bucket_1: 476
Non-critical_ROB_Stalls_Percent_0_Bucket_1: 865020
Critical_ROB_Stalls_Percent_0_Bucket_2: 0
Non-critical_ROB_Stalls_Percent_0_Bucket_2: 273999
Critical_ROB_Stalls_Percent_0_Bucket_3: 0
Non-critical_ROB_Stalls_Percent_0_Bucket_3: 64055
Critical_ROB_Stalls_Percent_0_Bucket_4: 0
Non-critical_ROB_Stalls_Percent_0_Bucket_4: 8417
Critical_ROB_Stalls_Percent_0_Bucket_5: 0
Non-critical_ROB_Stalls_Percent_0_Bucket_5: 3795
Critical_ROB_Stalls_Percent_0_Bucket_6: 0
Non-critical_ROB_Stalls_Percent_0_Bucket_6: 15155
Critical_ROB_Stalls_Percent_1_Bucket_0: 32620
Non-critical_ROB_Stalls_Percent_1_Bucket_0: 1569749
Critical_ROB_Stalls_Percent_1_Bucket_1: 476
Non-critical_ROB_Stalls_Percent_1_Bucket_1: 865020
Critical_ROB_Stalls_Percent_1_Bucket_2: 0
Non-critical_ROB_Stalls_Percent_1_Bucket_2: 273999
Critical_ROB_Stalls_Percent_1_Bucket_3: 0
Non-critical_ROB_Stalls_Percent_1_Bucket_3: 64055
Critical_ROB_Stalls_Percent_1_Bucket_4: 0
Non-critical_ROB_Stalls_Percent_1_Bucket_4: 8417
Critical_ROB_Stalls_Percent_1_Bucket_5: 0
Non-critical_ROB_Stalls_Percent_1_Bucket_5: 3795
Critical_ROB_Stalls_Percent_1_Bucket_6: 0
Non-critical_ROB_Stalls_Percent_1_Bucket_6: 15155
Critical_ROB_Stalls_Percent_2_Bucket_0: 32620
Non-critical_ROB_Stalls_Percent_2_Bucket_0: 1569749
Critical_ROB_Stalls_Percent_2_Bucket_1: 476
Non-critical_ROB_Stalls_Percent_2_Bucket_1: 865020
Critical_ROB_Stalls_Percent_2_Bucket_2: 0
Non-critical_ROB_Stalls_Percent_2_Bucket_2: 273999
Critical_ROB_Stalls_Percent_2_Bucket_3: 0
Non-critical_ROB_Stalls_Percent_2_Bucket_3: 64055
Critical_ROB_Stalls_Percent_2_Bucket_4: 0
Non-critical_ROB_Stalls_Percent_2_Bucket_4: 8417
Critical_ROB_Stalls_Percent_2_Bucket_5: 0
Non-critical_ROB_Stalls_Percent_2_Bucket_5: 3795
Critical_ROB_Stalls_Percent_2_Bucket_6: 0
Non-critical_ROB_Stalls_Percent_2_Bucket_6: 15155
Critical_ROB_Stalls_Percent_3_Bucket_0: 32620
Non-critical_ROB_Stalls_Percent_3_Bucket_0: 1569749
Critical_ROB_Stalls_Percent_3_Bucket_1: 476
Non-critical_ROB_Stalls_Percent_3_Bucket_1: 865020
Critical_ROB_Stalls_Percent_3_Bucket_2: 0
Non-critical_ROB_Stalls_Percent_3_Bucket_2: 273999
Critical_ROB_Stalls_Percent_3_Bucket_3: 0
Non-critical_ROB_Stalls_Percent_3_Bucket_3: 64055
Critical_ROB_Stalls_Percent_3_Bucket_4: 0
Non-critical_ROB_Stalls_Percent_3_Bucket_4: 8417
Critical_ROB_Stalls_Percent_3_Bucket_5: 0
Non-critical_ROB_Stalls_Percent_3_Bucket_5: 3795
Critical_ROB_Stalls_Percent_3_Bucket_6: 0
Non-critical_ROB_Stalls_Percent_3_Bucket_6: 15155
Critical_ROB_Stalls_Percent_4_Bucket_0: 32620
Non-critical_ROB_Stalls_Percent_4_Bucket_0: 1569749
Critical_ROB_Stalls_Percent_4_Bucket_1: 476
Non-critical_ROB_Stalls_Percent_4_Bucket_1: 865020
Critical_ROB_Stalls_Percent_4_Bucket_2: 0
Non-critical_ROB_Stalls_Percent_4_Bucket_2: 273999
Critical_ROB_Stalls_Percent_4_Bucket_3: 0
Non-critical_ROB_Stalls_Percent_4_Bucket_3: 64055
Critical_ROB_Stalls_Percent_4_Bucket_4: 0
Non-critical_ROB_Stalls_Percent_4_Bucket_4: 8417
Critical_ROB_Stalls_Percent_4_Bucket_5: 0
Non-critical_ROB_Stalls_Percent_4_Bucket_5: 3795
Critical_ROB_Stalls_Percent_4_Bucket_6: 0
Non-critical_ROB_Stalls_Percent_4_Bucket_6: 15155
Critical_ROB_Stalls_Percent_5_Bucket_0: 32620
Non-critical_ROB_Stalls_Percent_5_Bucket_0: 1569749
Critical_ROB_Stalls_Percent_5_Bucket_1: 476
Non-critical_ROB_Stalls_Percent_5_Bucket_1: 865020
Critical_ROB_Stalls_Percent_5_Bucket_2: 0
Non-critical_ROB_Stalls_Percent_5_Bucket_2: 273999
Critical_ROB_Stalls_Percent_5_Bucket_3: 0
Non-critical_ROB_Stalls_Percent_5_Bucket_3: 64055
Critical_ROB_Stalls_Percent_5_Bucket_4: 0
Non-critical_ROB_Stalls_Percent_5_Bucket_4: 8417
Critical_ROB_Stalls_Percent_5_Bucket_5: 0
Non-critical_ROB_Stalls_Percent_5_Bucket_5: 3795
Critical_ROB_Stalls_Percent_5_Bucket_6: 0
Non-critical_ROB_Stalls_Percent_5_Bucket_6: 15155
Critical_ROB_Stalls_Percent_6_Bucket_0: 32620
Non-critical_ROB_Stalls_Percent_6_Bucket_0: 1569749
Critical_ROB_Stalls_Percent_6_Bucket_1: 476
Non-critical_ROB_Stalls_Percent_6_Bucket_1: 865020
Critical_ROB_Stalls_Percent_6_Bucket_2: 0
Non-critical_ROB_Stalls_Percent_6_Bucket_2: 273999
Critical_ROB_Stalls_Percent_6_Bucket_3: 0
Non-critical_ROB_Stalls_Percent_6_Bucket_3: 64055
Critical_ROB_Stalls_Percent_6_Bucket_4: 0
Non-critical_ROB_Stalls_Percent_6_Bucket_4: 8417
Critical_ROB_Stalls_Percent_6_Bucket_5: 0
Non-critical_ROB_Stalls_Percent_6_Bucket_5: 3795
Critical_ROB_Stalls_Percent_6_Bucket_6: 0
Non-critical_ROB_Stalls_Percent_6_Bucket_6: 15155
Critical_ROB_Stalls_Percent_7_Bucket_0: 32620
Non-critical_ROB_Stalls_Percent_7_Bucket_0: 1569749
Critical_ROB_Stalls_Percent_7_Bucket_1: 476
Non-critical_ROB_Stalls_Percent_7_Bucket_1: 865020
Critical_ROB_Stalls_Percent_7_Bucket_2: 0
Non-critical_ROB_Stalls_Percent_7_Bucket_2: 273999
Critical_ROB_Stalls_Percent_7_Bucket_3: 0
Non-critical_ROB_Stalls_Percent_7_Bucket_3: 64055
Critical_ROB_Stalls_Percent_7_Bucket_4: 0
Non-critical_ROB_Stalls_Percent_7_Bucket_4: 8417
Critical_ROB_Stalls_Percent_7_Bucket_5: 0
Non-critical_ROB_Stalls_Percent_7_Bucket_5: 3795
Critical_ROB_Stalls_Percent_7_Bucket_6: 0
Non-critical_ROB_Stalls_Percent_7_Bucket_6: 15155
Critical_ROB_Stalls_Percent_8_Bucket_0: 32620
Non-critical_ROB_Stalls_Percent_8_Bucket_0: 1569749
Critical_ROB_Stalls_Percent_8_Bucket_1: 476
Non-critical_ROB_Stalls_Percent_8_Bucket_1: 865020
Critical_ROB_Stalls_Percent_8_Bucket_2: 0
Non-critical_ROB_Stalls_Percent_8_Bucket_2: 273999
Critical_ROB_Stalls_Percent_8_Bucket_3: 0
Non-critical_ROB_Stalls_Percent_8_Bucket_3: 64055
Critical_ROB_Stalls_Percent_8_Bucket_4: 0
Non-critical_ROB_Stalls_Percent_8_Bucket_4: 8417
Critical_ROB_Stalls_Percent_8_Bucket_5: 0
Non-critical_ROB_Stalls_Percent_8_Bucket_5: 3795
Critical_ROB_Stalls_Percent_8_Bucket_6: 0
Non-critical_ROB_Stalls_Percent_8_Bucket_6: 15155
Average ROB occupancy Load Stall Begin: 45.2275
Average ROB occupancy Load Stall End: 55.1453
Min ROB occupancy Load Stall Begin: 1
Max ROB occupancy Load Stall Begin: 352
Min ROB occupancy Load Stall End: 1
Max ROB occupancy Load Stall End: 352
Average ROB occupancy Critical Load Stall Begin: -nan
Average ROB occupancy Critical Load Stall End: -nan
Min ROB occupancy Critical Load Stall Begin: 400
Max ROB occupancy Critical Load Stall Begin: 0
Min ROB occupancy Critical Load Stall End: 400
Max ROB occupancy Critical Load Stall End: 0
 ROB Load Stall Begin Bucket Count 0: 1928752
 ROB Load Stall End Bucket Count 0: 1602369
 ROB Critical Load Stall Begin Bucket Count 0: 0
 ROB Critical Load Stall End Bucket Count 0: 0
 ROB Load Stall Begin Bucket Count 1: 650836
 ROB Load Stall End Bucket Count 1: 865496
 ROB Critical Load Stall Begin Bucket Count 1: 0
 ROB Critical Load Stall End Bucket Count 1: 0
 ROB Load Stall Begin Bucket Count 2: 187581
 ROB Load Stall End Bucket Count 2: 273999
 ROB Critical Load Stall Begin Bucket Count 2: 0
 ROB Critical Load Stall End Bucket Count 2: 0
 ROB Load Stall Begin Bucket Count 3: 42223
 ROB Load Stall End Bucket Count 3: 64055
 ROB Critical Load Stall Begin Bucket Count 3: 0
 ROB Critical Load Stall End Bucket Count 3: 0
 ROB Load Stall Begin Bucket Count 4: 6015
 ROB Load Stall End Bucket Count 4: 8417
 ROB Critical Load Stall Begin Bucket Count 4: 0
 ROB Critical Load Stall End Bucket Count 4: 0
 ROB Load Stall Begin Bucket Count 5: 4657
 ROB Load Stall End Bucket Count 5: 3795
 ROB Critical Load Stall Begin Bucket Count 5: 0
 ROB Critical Load Stall End Bucket Count 5: 0
 ROB Load Stall Begin Bucket Count 6: 13222
 ROB Load Stall End Bucket Count 6: 15155
 ROB Critical Load Stall Begin Bucket Count 6: 0
 ROB Critical Load Stall End Bucket Count 6: 0
PIST Tag Read Accesses: 0
PIST Read Accesses: 0
PIST Tag Write Accesses: 0
PIST Write Accesses: 0
Criticality detector called times: 0
Max global_stall_cycles_count: 0
Threshold Modified: 0 times, factor: 0
ITLB TOTAL     ACCESS:   10563570  HIT:    9877655  MISS:     685915  HIT %:    93.5068  MISS %:    6.49321   MPKI: 13.7183
ITLB LOAD TRANSLATION ACCESS:    8287405  HIT:    8265741  MISS:      21664  HIT %:    99.7386  MISS %:   0.261409   MPKI: 0.43328
ITLB TRANSLATION FROM L1D PREFETCHER ACCESS:    2276165  HIT:    1611914  MISS:     664251  HIT %:    70.8171  MISS %:    29.1829   MPKI: 13.285
ITLB PREFETCH  REQUESTED:          0  ISSUED:          0  USEFUL:     554001  USELESS:     110244
ITLB USEFUL LOAD PREFETCHES:     554001 PREFETCH ISSUED TO LOWER LEVEL:          0  ACCURACY: inf
ITLB TIMELY PREFETCHES:     554001 LATE PREFETCHES: 57 DROPPED PREFETCHES: 0
ITLB PREFETCHES SAME FILL-ORIGIN LEVEL: 0 DIFFERENT FILL-ORIGIN LEVEL: 0
ITLB AVERAGE MISS LATENCY: 3972.53 cycles
ITLB RQ	ACCESS:   15999923	FORWARD:          0	MERGED:    5396668	TO_CACHE:   10603255

DTLB TOTAL     ACCESS:    9472883  HIT:    9059273  MISS:     413610  HIT %:    95.6337  MISS %:    4.36625   MPKI: 8.2722
DTLB LOAD TRANSLATION ACCESS:    9472883  HIT:    9059273  MISS:     413610  HIT %:    95.6337  MISS %:    4.36625   MPKI: 8.2722
DTLB PREFETCH  REQUESTED:          0  ISSUED:          0  USEFUL:          0  USELESS:          0
DTLB USEFUL LOAD PREFETCHES:          0 PREFETCH ISSUED TO LOWER LEVEL:          0  ACCURACY: -nan
DTLB TIMELY PREFETCHES:          0 LATE PREFETCHES: 0 DROPPED PREFETCHES: 0
DTLB PREFETCHES SAME FILL-ORIGIN LEVEL: 0 DIFFERENT FILL-ORIGIN LEVEL: 0
DTLB AVERAGE MISS LATENCY: 9.07479 cycles
DTLB RQ	ACCESS:   13390632	FORWARD:          0	MERGED:    3901277	TO_CACHE:    9489355

STLB TOTAL     ACCESS:    1156175  HIT:    1155372  MISS:        803  HIT %:    99.9305  MISS %:  0.0694532   MPKI: 0.01606
STLB LOAD TRANSLATION ACCESS:     435217  HIT:     434682  MISS:        535  HIT %:    99.8771  MISS %:   0.122927   MPKI: 0.0107
STLB TRANSLATION FROM L1D PREFETCHER ACCESS:     720958  HIT:     720690  MISS:        268  HIT %:    99.9628  MISS %:  0.0371728   MPKI: 0.00536
STLB PREFETCH  REQUESTED:          0  ISSUED:          0  USEFUL:        153  USELESS:        115
STLB USEFUL LOAD PREFETCHES:        153 PREFETCH ISSUED TO LOWER LEVEL:          0  ACCURACY: inf
STLB TIMELY PREFETCHES:        153 LATE PREFETCHES: 0 DROPPED PREFETCHES: 0
STLB PREFETCHES SAME FILL-ORIGIN LEVEL: 0 DIFFERENT FILL-ORIGIN LEVEL: 0
STLB AVERAGE MISS LATENCY: 37.1482 cycles
STLB RQ	ACCESS:    1187134	FORWARD:          0	MERGED:      30959	TO_CACHE:    1156175

STLB Hit, L1D data hit: 0
STLB Hit, L2C data hit: 0
STLB Hit, LLC data hit: 0
STLB Hit, LLC data miss: 0
STLB STLB hints to L2: 0
L1D TOTAL     ACCESS:   13350003  HIT:   12656985  MISS:     693018  HIT %:    94.8089  MISS %:    5.19114   MPKI: 13.8604
L1D LOAD      ACCESS:    7000137  HIT:    6449794  MISS:     550343  HIT %:    92.1381  MISS %:    7.86189   MPKI: 11.0069
L1D RFO       ACCESS:    6263495  HIT:    6170469  MISS:      93026  HIT %:    98.5148  MISS %:    1.48521   MPKI: 1.86052
L1D PREFETCH  ACCESS:      86371  HIT:      36722  MISS:      49649  HIT %:    42.5166  MISS %:    57.4834   MPKI: 0.99298
L1D PREFETCH  REQUESTED:     175225  ISSUED:     175225  USEFUL:       7109  USELESS:      42501
L1D USEFUL LOAD PREFETCHES:       7109 PREFETCH ISSUED TO LOWER LEVEL:      49960  ACCURACY: 14.2294
L1D TIMELY PREFETCHES:       7109 LATE PREFETCHES: 283 DROPPED PREFETCHES: 0
L1D PREFETCHES SAME FILL-ORIGIN LEVEL: 49960 DIFFERENT FILL-ORIGIN LEVEL: 0
L1D AVERAGE MISS LATENCY: 18908 cycles
L1D RQ	ACCESS:   10530730	FORWARD:          0	MERGED:    3352859	TO_CACHE:    7017814
L1D WQ	ACCESS:    6506011	FORWARD:     160064	MERGED:     133193	TO_CACHE:    6372818
L1D PQ	ACCESS:      87616	FORWARD:          0	MERGED:          0	TO_CACHE:      87609

L1D UNIQUE REGIONS ACCESSED: 0
L1D REGIONS CONFLICTS: 0
L1D Cross Page Prefetch Requests: 0
L1D Same Page Prefetch Requests: 88445
L1D ROI Sum of L1D PQ occupancy: 1141243
L1D PREFETCHES PUSHED FROM L2C: 0
L1I TOTAL     ACCESS:   15939290  HIT:   11407688  MISS:    4531602  HIT %:    71.5696  MISS %:    28.4304   MPKI: 90.632
L1I LOAD      ACCESS:    9783705  HIT:    9753713  MISS:      29992  HIT %:    99.6934  MISS %:   0.306551   MPKI: 0.59984
L1I PREFETCH  ACCESS:    6155585  HIT:    1653975  MISS:    4501610  HIT %:    26.8695  MISS %:    73.1305   MPKI: 90.0322
L1I PREFETCH  REQUESTED:    6367482  ISSUED:    6349348  USEFUL:    3401291  USELESS:    1100300
L1I USEFUL LOAD PREFETCHES:    3401291 PREFETCH ISSUED TO LOWER LEVEL:    4514329  ACCURACY: 75.3443
L1I TIMELY PREFETCHES:    3401291 LATE PREFETCHES: 12716 DROPPED PREFETCHES: 0
L1I PREFETCHES SAME FILL-ORIGIN LEVEL: 4514329 DIFFERENT FILL-ORIGIN LEVEL: 0
L1I AVERAGE MISS LATENCY: 126331 cycles
L1I RQ	ACCESS:   14223167	FORWARD:          0	MERGED:    4436628	TO_CACHE:    9786539
L1I PQ	ACCESS:    6349348	FORWARD:          0	MERGED:     135964	TO_CACHE:    6213384

BTB TOTAL     ACCESS:    6346792  HIT:    5354841  MISS:     991951  HIT %:    84.3708  MISS %:    15.6292   MPKI: 19.839
BTB BRANCH_DIRECT_JUMP	ACCESS:     771318  HIT:     694201  MISS:      77117
BTB BRANCH_INDIRECT	ACCESS:     108662  HIT:      73806  MISS:      34856
BTB BRANCH_CONDITIONAL	ACCESS:    2942980  HIT:    2730770  MISS:     212210
BTB BRANCH_DIRECT_CALL	ACCESS:    1049632  HIT:     929791  MISS:     119841
BTB BRANCH_INDIRECT_CALL	ACCESS:     212280  HIT:     143929  MISS:      68351
BTB BRANCH_RETURN	ACCESS:    1261920  HIT:     782344  MISS:     479576
BTB BRANCH_OTHER ACCESS:          0  HIT:          0  MISS:          0

L2C TOTAL     ACCESS:    5597498  HIT:    5492069  MISS:     105429  HIT %:    98.1165  MISS %:     1.8835   MPKI: 2.10858
L2C LOAD      ACCESS:     567299  HIT:     520505  MISS:      46794  HIT %:    91.7514  MISS %:    8.24856   MPKI: 0.93588
L2C DATA LOAD MPKI: 0.9177
L2C INSTRUCTION LOAD MPKI: 0.01818
L2C RFO       ACCESS:      92998  HIT:      82135  MISS:      10863  HIT %:    88.3191  MISS %:    11.6809   MPKI: 0.21726
L2C PREFETCH  ACCESS:    4693478  HIT:    4651128  MISS:      42350  HIT %:    99.0977  MISS %:   0.902316   MPKI: 0.847
L2C DATA PREFETCH MPKI: 0.4115
L2C INSTRUCTION PREFETCH MPKI: 0.4355
L2C WRITEBACK ACCESS:     242911  HIT:     237728  MISS:       5183  HIT %:    97.8663  MISS %:     2.1337   MPKI: 0.10366
L2C LOAD TRANSLATION ACCESS:        543  HIT:        425  MISS:        118  HIT %:    78.2689  MISS %:    21.7311   MPKI: 0.00236
L2C TRANSLATION FROM L1D PREFETCHER ACCESS:        269  HIT:        148  MISS:        121  HIT %:    55.0186  MISS %:    44.9814   MPKI: 0.00242
L2C PREFETCH  REQUESTED:     290341  ISSUED:     290341  USEFUL:       1442  USELESS:      40307
L2C USEFUL LOAD PREFETCHES:       1442 PREFETCH ISSUED TO LOWER LEVEL:      42649  ACCURACY: 3.38109
L2C TIMELY PREFETCHES:       1442 LATE PREFETCHES: 299 DROPPED PREFETCHES: 0
L2C PREFETCHES SAME FILL-ORIGIN LEVEL: 10783 DIFFERENT FILL-ORIGIN LEVEL: 0
L2C AVERAGE MISS LATENCY: 35.927 cycles
L2C RQ	ACCESS:     661146	FORWARD:          0	MERGED:          0	TO_CACHE:     661109
L2C WQ	ACCESS:     242911	FORWARD:         37	MERGED:          0	TO_CACHE:     242911
L2C PQ	ACCESS:    4854630	FORWARD:          0	MERGED:     160754	TO_CACHE:    4693876

L2C Instructions Evicting Data 10909
L2C Translations Evicting Data 213
L2C Data Evicting Data 67923
L2C Instructions Evicting Instructions 11763
L2C Translations Evicting Instructions 26
L2C Data Evicting Instructions 9170
L2C Instructions Evicting Translations 12
L2C Translations Evicting Translations 0
L2C Data Evicting Translations 230
L2C Dense regions hint from L2: 0
PSCL5 TOTAL     ACCESS:        803  HIT:        803  MISS:          0  HIT %:        100  MISS %:          0   MPKI: 0
PSCL5 LOAD TRANSLATION ACCESS:        535  HIT:        535  MISS:          0  HIT %:        100  MISS %:          0   MPKI: 0
PSCL5 TRANSLATION FROM L1D PREFETCHER ACCESS:        268  HIT:        268  MISS:          0  HIT %:        100  MISS %:          0   MPKI: 0
PSCL5 PREFETCH  REQUESTED:          0  ISSUED:          0  USEFUL:          0  USELESS:          0
PSCL5 USEFUL LOAD PREFETCHES:          0 PREFETCH ISSUED TO LOWER LEVEL:          0  ACCURACY: -nan
PSCL5 TIMELY PREFETCHES:          0 LATE PREFETCHES: 0 DROPPED PREFETCHES: 0
PSCL5 PREFETCHES SAME FILL-ORIGIN LEVEL: 0 DIFFERENT FILL-ORIGIN LEVEL: 0

PSCL4 TOTAL     ACCESS:        529  HIT:        528  MISS:          1  HIT %:     99.811  MISS %:   0.189036   MPKI: 2e-05
PSCL4 LOAD TRANSLATION ACCESS:        349  HIT:        348  MISS:          1  HIT %:    99.7135  MISS %:   0.286533   MPKI: 2e-05
PSCL4 TRANSLATION FROM L1D PREFETCHER ACCESS:        180  HIT:        180  MISS:          0  HIT %:        100  MISS %:          0   MPKI: 0
PSCL4 PREFETCH  REQUESTED:          0  ISSUED:          0  USEFUL:          0  USELESS:          0
PSCL4 USEFUL LOAD PREFETCHES:          0 PREFETCH ISSUED TO LOWER LEVEL:          0  ACCURACY: -nan
PSCL4 TIMELY PREFETCHES:          0 LATE PREFETCHES: 0 DROPPED PREFETCHES: 0
PSCL4 PREFETCHES SAME FILL-ORIGIN LEVEL: 0 DIFFERENT FILL-ORIGIN LEVEL: 0

PSCL3 TOTAL     ACCESS:        613  HIT:        612  MISS:          1  HIT %:    99.8369  MISS %:   0.163132   MPKI: 2e-05
PSCL3 LOAD TRANSLATION ACCESS:        433  HIT:        432  MISS:          1  HIT %:    99.7691  MISS %:   0.230947   MPKI: 2e-05
PSCL3 TRANSLATION FROM L1D PREFETCHER ACCESS:        180  HIT:        180  MISS:          0  HIT %:        100  MISS %:          0   MPKI: 0
PSCL3 PREFETCH  REQUESTED:          0  ISSUED:          0  USEFUL:          0  USELESS:          0
PSCL3 USEFUL LOAD PREFETCHES:          0 PREFETCH ISSUED TO LOWER LEVEL:          0  ACCURACY: -nan
PSCL3 TIMELY PREFETCHES:          0 LATE PREFETCHES: 0 DROPPED PREFETCHES: 0
PSCL3 PREFETCHES SAME FILL-ORIGIN LEVEL: 0 DIFFERENT FILL-ORIGIN LEVEL: 0

PSCL2 TOTAL     ACCESS:        803  HIT:        796  MISS:          7  HIT %:    99.1283  MISS %:   0.871731   MPKI: 0.00014
PSCL2 LOAD TRANSLATION ACCESS:        536  HIT:        529  MISS:          7  HIT %:     98.694  MISS %:    1.30597   MPKI: 0.00014
PSCL2 TRANSLATION FROM L1D PREFETCHER ACCESS:        267  HIT:        267  MISS:          0  HIT %:        100  MISS %:          0   MPKI: 0
PSCL2 PREFETCH  REQUESTED:          0  ISSUED:          0  USEFUL:          0  USELESS:          0
PSCL2 USEFUL LOAD PREFETCHES:          0 PREFETCH ISSUED TO LOWER LEVEL:          0  ACCURACY: -nan
PSCL2 TIMELY PREFETCHES:          0 LATE PREFETCHES: 0 DROPPED PREFETCHES: 0
PSCL2 PREFETCHES SAME FILL-ORIGIN LEVEL: 0 DIFFERENT FILL-ORIGIN LEVEL: 0

LLC TOTAL     ACCESS:     135645  HIT:     128469  MISS:       7176  HIT %:    94.7097  MISS %:    5.29028   MPKI: 0.14352
LLC LOAD      ACCESS:      46790  HIT:      45471  MISS:       1319  HIT %:     97.181  MISS %:    2.81898   MPKI: 0.02638
LLC RFO       ACCESS:      10568  HIT:       9449  MISS:       1119  HIT %:    89.4114  MISS %:    10.5886   MPKI: 0.02238
LLC PREFETCH  ACCESS:      42649  HIT:      37999  MISS:       4650  HIT %:     89.097  MISS %:     10.903   MPKI: 0.093
LLC WRITEBACK ACCESS:      35399  HIT:      35320  MISS:         79  HIT %:    99.7768  MISS %:    0.22317   MPKI: 0.00158
LLC LOAD TRANSLATION ACCESS:        118  HIT:        109  MISS:          9  HIT %:    92.3729  MISS %:    7.62712   MPKI: 0.00018
LLC TRANSLATION FROM L1D PREFETCHER ACCESS:        121  HIT:        121  MISS:          0  HIT %:        100  MISS %:          0   MPKI: 0
LLC PREFETCH  REQUESTED:          0  ISSUED:          0  USEFUL:        716  USELESS:        240
LLC USEFUL LOAD PREFETCHES:        716 PREFETCH ISSUED TO LOWER LEVEL:       4650  ACCURACY: 15.3978
LLC TIMELY PREFETCHES:        716 LATE PREFETCHES: 0 DROPPED PREFETCHES: 0
LLC PREFETCHES SAME FILL-ORIGIN LEVEL: 0 DIFFERENT FILL-ORIGIN LEVEL: 0
LLC AVERAGE MISS LATENCY: 111.764 cycles
LLC RQ	ACCESS:      57597	FORWARD:          0	MERGED:          0	TO_CACHE:      57597
LLC WQ	ACCESS:      35399	FORWARD:          0	MERGED:          0	TO_CACHE:      35399
LLC PQ	ACCESS:      42649	FORWARD:          0	MERGED:          0	TO_CACHE:      42649

LLC Dense regions hint to LLC: 0

RAW hits: 1508543
Loads Generated: 12039274
Loads sent to L1D: 10530730
Stores Generated: 6506011
Stores sent to L1D: 6506011
Major fault: 0 Minor fault: 1244
Allocated PAGES: 1244
I-Shadow cache 408 bytes
Touched + WorthPF tables 6144 bytes 
MMA filter 174 bytes 
FNL filter 272 bytes 
TOTAL PREFETCHER STORAGE SIZE: 25174 bytes
CPU 0 L1I next line prefetcher final stats

stream: 
stream:times selected: 64721
stream:pref_filled: 24364
stream:pref_useful: 1972
stream:pref_late: 22
stream:misses: 2152
stream:misses_by_poll: 0

CS: 
CS:times selected: 2465
CS:pref_filled: 2658
CS:pref_useful: 2313
CS:pref_late: 29
CS:misses: 135
CS:misses_by_poll: 6

CPLX: 
CPLX:times selected: 60548
CPLX:pref_filled: 22508
CPLX:pref_useful: 2742
CPLX:pref_late: 161
CPLX:misses: 7985
CPLX:misses_by_poll: 1

NL_L1: 
NL:times selected: 121
NL:pref_filled: 105
NL:pref_useful: 7
NL:pref_late: 0
NL:misses: 78
NL:misses_by_poll: 0

total selections: 127855
total_filled: 49649
total_useful: 7109
total_late: 288
total_polluted: 7
total_misses_after_warmup: 44507
conflicts: 151583
Degree Incremented Times: 125
Degree Decremented Times: 5392

L1 IP Table Write Accesses: 377877
L1 IP Table Read Accesses: 226294
L1 RST Write Accesses: 64130
L1 RST Read Accesses: 128260
L1 CSPT Write Accesses: 64130
L1 CSPT Read Accesses: 125386
L1 RR Filter Tag Write Accesses: 87616
L1 RR Filter Tag Read Accesses: 3425778
L1 IP Table Tag Write Accesses: 546415
L1 IP Table Tag Read Accesses: 546415
L1 RST Tag Write Accesses: 0
L1 RST Tag Read Accesses: 537691
L1 RR Filter Write Accesses: 0
L1 RR Filter Read Accesses: 109861
test: 31907
L2 IP Table Read Accesses: 387117
L2 IP Table Write Accesses: 653178
L2 IP Table Tag Read Accesses: 341130
L2 IP Table Tag Write Accesses: 341130

DRAM Statistics
 CHANNEL 0
 RQ ROW_BUFFER_HIT:       4282  ROW_BUFFER_MISS:       2815
 DBUS_CONGESTED:          4
 WQ ROW_BUFFER_HIT:         75  ROW_BUFFER_MISS:        552  FULL:          0

 AVG_CONGESTED_CYCLE: 4
 All warmup complete: 2
Channel 0 Bank busy for read cycles: 0
Channel 0 Bank busy for write cycles: 0
Channel 0
Rank 0
0banks busy for read cycles: 62229647
0banks busy for write cycles: 374
1banks busy for read cycles: 281943
1banks busy for write cycles: 56616
2banks busy for read cycles: 91370
2banks busy for write cycles: 10766
3banks busy for read cycles: 26117
3banks busy for write cycles: 3142
4banks busy for read cycles: 14798
4banks busy for write cycles: 2532
5banks busy for read cycles: 4913
5banks busy for write cycles: 1319
6banks busy for read cycles: 1293
6banks busy for write cycles: 1184
7banks busy for read cycles: 181
7banks busy for write cycles: 796
8banks busy for read cycles: 71
8banks busy for write cycles: 440

CPU 0 Branch Prediction Accuracy: 99.926% MPKI: 0.14472 Average ROB Occupancy at Mispredict: 61.2623
Branch types
NOT_BRANCH: 40220862 80.4417%
BRANCH_DIRECT_JUMP: 771318 1.54264%
BRANCH_INDIRECT: 108662 0.217324%
BRANCH_CONDITIONAL: 6375020 12.75%
BRANCH_DIRECT_CALL: 1049632 2.09926%
BRANCH_INDIRECT_CALL: 212280 0.42456%
BRANCH_RETURN: 1261920 2.52384%
BRANCH_OTHER: 0 0%

DRAM PAGES: 1048576
Allocated PAGES: 1244
