
*** ChampSim Multicore Out-of-Order Simulator ***

Warmup Instructions: 50000000
Simulation Instructions: 50000000
Number of CPUs: 1
LLC sets: 2048
LLC ways: 16
Off-chip DRAM Size: 4096 MB Channels: 1 Width: 64-bit Data Rate: 6400 MT/s
CPU 0 runs ../IPC-traces//server_030.champsimtrace.xz
.xz
NUM_OF_IPS_IN_CRITICAL_IP_TRAINING: 64
NUM_OF_CRITICAL_IP_TRAINING_TABLE_WAYS: 2
NUM_OF_CRITICAL_IP_TRAINING_TABLE_SETS: 32
WOBBLY_CRITICAL_IP_CACHE_SETS: 32
WOBBLY_CRITICAL_IP_CACHE_WAYS: 4
BTB has LRU replacement policy
ITLB has LRU replacement policy
DTLB has LRU replacement policy
STLB has LRU replacement policy
CPU 0 L1I next line prefetcher
L1I has LRU replacement policy
IP Table Entries: 64
L1D has LRU replacement policy
IP_Table L2 entries: 64
Initialize SRRIP state for L2C
Initialize DRRIP state for LLC
Heartbeat CPU 0 instructions: 10000003 cycles: 2889757 heartbeat IPC: 3.4605 cumulative IPC: 3.4605 (Simulation time: 0 hr 3 min 44 sec) 
Heartbeat CPU 0 instructions: 20000003 cycles: 5775072 heartbeat IPC: 3.46583 cumulative IPC: 3.46316 (Simulation time: 0 hr 7 min 3 sec) 
Heartbeat CPU 0 instructions: 30000001 cycles: 8661198 heartbeat IPC: 3.46485 cumulative IPC: 3.46372 (Simulation time: 0 hr 9 min 38 sec) 
Heartbeat CPU 0 instructions: 40000001 cycles: 11547644 heartbeat IPC: 3.46447 cumulative IPC: 3.46391 (Simulation time: 0 hr 12 min 9 sec) 
Heartbeat CPU 0 instructions: 50000002 cycles: 14434845 heartbeat IPC: 3.46356 cumulative IPC: 3.46384 (Simulation time: 0 hr 14 min 38 sec) 

Warmup complete CPU 0 instructions: 50000002 cycles: 14434845 (Simulation time: 0 hr 14 min 38 sec) 

% increase in all ip prefetch 410.231
% increase in all ip prefetch -2.47686
Heartbeat CPU 0 instructions: 60000000 cycles: 30422986 heartbeat IPC: 0.625463 cumulative IPC: 0.625463 (Simulation time: 0 hr 16 min 59 sec) 
Heartbeat CPU 0 instructions: 70000002 cycles: 46439197 heartbeat IPC: 0.624368 cumulative IPC: 0.624915 (Simulation time: 0 hr 19 min 15 sec) 
Heartbeat CPU 0 instructions: 80000001 cycles: 62334410 heartbeat IPC: 0.62912 cumulative IPC: 0.62631 (Simulation time: 0 hr 21 min 35 sec) 
*** Reached end of trace for Core: 0 Repeating trace: ../IPC-traces//server_030.champsimtrace.xz
Heartbeat CPU 0 instructions: 90000002 cycles: 78295452 heartbeat IPC: 0.626526 cumulative IPC: 0.626364 (Simulation time: 0 hr 23 min 49 sec) 
Heartbeat CPU 0 instructions: 100000000 cycles: 94124957 heartbeat IPC: 0.631732 cumulative IPC: 0.62743 (Simulation time: 0 hr 26 min 32 sec) 
Finished CPU 0 instructions: 50000002 cycles: 79690113 cumulative IPC: 0.62743 (Simulation time: 0 hr 26 min 32 sec) 

ChampSim completed all CPUs

Region of Interest Statistics

CPU 0 cumulative IPC: 0.62743 instructions: 50000002 cycles: 79690113

CPU 0 Average Load ROB stall cycles: 6.20935e+06
CPU 0 Fraction of times ROB stalled by Loads: 11.4252
CPU 0 Percentage of Load stall cycles in Total stall cycles: 9.64736e+07
 Total stall cycles: 46500391
 Total load stall cycles: 44860580966781
CPU 0 NUM of IPS identified critical: 0
CPU 0 Num of Load IPs stalling ROB: 4239
Threshold modification factor: -1
Max PIST entries: 64
Min PIST entries: 0
Avg PIST entries: 32
Trouble in retire width: 0.780263
MaC = Marked as critical.
lt_50_percent_before_Mac: 0
gt_90_percent_before_Mac: 0
gt_75_percent_before_Mac: 0
gt_50_percent_before_Mac: 0
stall_proportion_bin_same_before_after: 0
stall_proportion_bin_lower_before_after: 0
stall_proportion_bin_upper_before_after: 0
average_stall_proportion_before: -nan
average_stall_proportion_after: -nan
Critical IP stalls, total frequency: 0
Non-critical IP stalls, total frequency: 727845
Critical_IP_ROB_Stalls_Bucket_0: 0
Non-critical_IP_ROB_Stalls_Bucket_0: 664342
Critical_IP_ROB_Stalls_Bucket_1: 0
Non-critical_IP_ROB_Stalls_Bucket_1: 109950
Critical_IP_ROB_Stalls_Bucket_2: 0
Non-critical_IP_ROB_Stalls_Bucket_2: 37236
Critical_IP_ROB_Stalls_Bucket_3: 0
Non-critical_IP_ROB_Stalls_Bucket_3: 10371
Critical_IP_ROB_Stalls_Bucket_4: 0
Non-critical_IP_ROB_Stalls_Bucket_4: 2776
Critical_IP_ROB_Stalls_Bucket_5: 0
Non-critical_IP_ROB_Stalls_Bucket_5: 514
Critical_IP_ROB_Stalls_Bucket_6: 0
Non-critical_IP_ROB_Stalls_Bucket_6: 247
0 => IPs accounting for >50 percent of stalls, 1 => 55, 2 => 60, 3 => 65 and so on till 90.
percent50: 50.0441 num IPs:215
percent55: 55.0882 num IPs:264
percent60: 60.0252 num IPs:313
percent65: 65.0291 num IPs:364
percent70: 70.0361 num IPs:417
percent75: 75.0545 num IPs:473
percent80: 80.0067 num IPs:533
percent85: 85.0407 num IPs:606
percent90: 90.0173 num IPs:698
Critical_ROB_Stalls_Percent_0_Bucket_0: 273872
Non-critical_ROB_Stalls_Percent_0_Bucket_0: 390470
Critical_ROB_Stalls_Percent_0_Bucket_1: 54039
Non-critical_ROB_Stalls_Percent_0_Bucket_1: 55911
Critical_ROB_Stalls_Percent_0_Bucket_2: 25097
Non-critical_ROB_Stalls_Percent_0_Bucket_2: 12139
Critical_ROB_Stalls_Percent_0_Bucket_3: 8695
Non-critical_ROB_Stalls_Percent_0_Bucket_3: 1676
Critical_ROB_Stalls_Percent_0_Bucket_4: 2244
Non-critical_ROB_Stalls_Percent_0_Bucket_4: 532
Critical_ROB_Stalls_Percent_0_Bucket_5: 274
Non-critical_ROB_Stalls_Percent_0_Bucket_5: 240
Critical_ROB_Stalls_Percent_0_Bucket_6: 22
Non-critical_ROB_Stalls_Percent_0_Bucket_6: 225
Critical_ROB_Stalls_Percent_1_Bucket_0: 308093
Non-critical_ROB_Stalls_Percent_1_Bucket_0: 356249
Critical_ROB_Stalls_Percent_1_Bucket_1: 56521
Non-critical_ROB_Stalls_Percent_1_Bucket_1: 53429
Critical_ROB_Stalls_Percent_1_Bucket_2: 25108
Non-critical_ROB_Stalls_Percent_1_Bucket_2: 12128
Critical_ROB_Stalls_Percent_1_Bucket_3: 8695
Non-critical_ROB_Stalls_Percent_1_Bucket_3: 1676
Critical_ROB_Stalls_Percent_1_Bucket_4: 2244
Non-critical_ROB_Stalls_Percent_1_Bucket_4: 532
Critical_ROB_Stalls_Percent_1_Bucket_5: 274
Non-critical_ROB_Stalls_Percent_1_Bucket_5: 240
Critical_ROB_Stalls_Percent_1_Bucket_6: 22
Non-critical_ROB_Stalls_Percent_1_Bucket_6: 225
Critical_ROB_Stalls_Percent_2_Bucket_0: 337771
Non-critical_ROB_Stalls_Percent_2_Bucket_0: 326571
Critical_ROB_Stalls_Percent_2_Bucket_1: 61388
Non-critical_ROB_Stalls_Percent_2_Bucket_1: 48562
Critical_ROB_Stalls_Percent_2_Bucket_2: 26494
Non-critical_ROB_Stalls_Percent_2_Bucket_2: 10742
Critical_ROB_Stalls_Percent_2_Bucket_3: 8698
Non-critical_ROB_Stalls_Percent_2_Bucket_3: 1673
Critical_ROB_Stalls_Percent_2_Bucket_4: 2244
Non-critical_ROB_Stalls_Percent_2_Bucket_4: 532
Critical_ROB_Stalls_Percent_2_Bucket_5: 274
Non-critical_ROB_Stalls_Percent_2_Bucket_5: 240
Critical_ROB_Stalls_Percent_2_Bucket_6: 22
Non-critical_ROB_Stalls_Percent_2_Bucket_6: 225
Critical_ROB_Stalls_Percent_3_Bucket_0: 371532
Non-critical_ROB_Stalls_Percent_3_Bucket_0: 292810
Critical_ROB_Stalls_Percent_3_Bucket_1: 63903
Non-critical_ROB_Stalls_Percent_3_Bucket_1: 46047
Critical_ROB_Stalls_Percent_3_Bucket_2: 26638
Non-critical_ROB_Stalls_Percent_3_Bucket_2: 10598
Critical_ROB_Stalls_Percent_3_Bucket_3: 8698
Non-critical_ROB_Stalls_Percent_3_Bucket_3: 1673
Critical_ROB_Stalls_Percent_3_Bucket_4: 2244
Non-critical_ROB_Stalls_Percent_3_Bucket_4: 532
Critical_ROB_Stalls_Percent_3_Bucket_5: 274
Non-critical_ROB_Stalls_Percent_3_Bucket_5: 240
Critical_ROB_Stalls_Percent_3_Bucket_6: 22
Non-critical_ROB_Stalls_Percent_3_Bucket_6: 225
Critical_ROB_Stalls_Percent_4_Bucket_0: 405574
Non-critical_ROB_Stalls_Percent_4_Bucket_0: 258768
Critical_ROB_Stalls_Percent_4_Bucket_1: 65696
Non-critical_ROB_Stalls_Percent_4_Bucket_1: 44254
Critical_ROB_Stalls_Percent_4_Bucket_2: 27188
Non-critical_ROB_Stalls_Percent_4_Bucket_2: 10048
Critical_ROB_Stalls_Percent_4_Bucket_3: 8755
Non-critical_ROB_Stalls_Percent_4_Bucket_3: 1616
Critical_ROB_Stalls_Percent_4_Bucket_4: 2244
Non-critical_ROB_Stalls_Percent_4_Bucket_4: 532
Critical_ROB_Stalls_Percent_4_Bucket_5: 274
Non-critical_ROB_Stalls_Percent_4_Bucket_5: 240
Critical_ROB_Stalls_Percent_4_Bucket_6: 22
Non-critical_ROB_Stalls_Percent_4_Bucket_6: 225
Critical_ROB_Stalls_Percent_5_Bucket_0: 438544
Non-critical_ROB_Stalls_Percent_5_Bucket_0: 225798
Critical_ROB_Stalls_Percent_5_Bucket_1: 68212
Non-critical_ROB_Stalls_Percent_5_Bucket_1: 41738
Critical_ROB_Stalls_Percent_5_Bucket_2: 27826
Non-critical_ROB_Stalls_Percent_5_Bucket_2: 9410
Critical_ROB_Stalls_Percent_5_Bucket_3: 9000
Non-critical_ROB_Stalls_Percent_5_Bucket_3: 1371
Critical_ROB_Stalls_Percent_5_Bucket_4: 2383
Non-critical_ROB_Stalls_Percent_5_Bucket_4: 393
Critical_ROB_Stalls_Percent_5_Bucket_5: 293
Non-critical_ROB_Stalls_Percent_5_Bucket_5: 221
Critical_ROB_Stalls_Percent_5_Bucket_6: 22
Non-critical_ROB_Stalls_Percent_5_Bucket_6: 225
Critical_ROB_Stalls_Percent_6_Bucket_0: 469977
Non-critical_ROB_Stalls_Percent_6_Bucket_0: 194365
Critical_ROB_Stalls_Percent_6_Bucket_1: 71372
Non-critical_ROB_Stalls_Percent_6_Bucket_1: 38578
Critical_ROB_Stalls_Percent_6_Bucket_2: 29232
Non-critical_ROB_Stalls_Percent_6_Bucket_2: 8004
Critical_ROB_Stalls_Percent_6_Bucket_3: 9045
Non-critical_ROB_Stalls_Percent_6_Bucket_3: 1326
Critical_ROB_Stalls_Percent_6_Bucket_4: 2383
Non-critical_ROB_Stalls_Percent_6_Bucket_4: 393
Critical_ROB_Stalls_Percent_6_Bucket_5: 293
Non-critical_ROB_Stalls_Percent_6_Bucket_5: 221
Critical_ROB_Stalls_Percent_6_Bucket_6: 22
Non-critical_ROB_Stalls_Percent_6_Bucket_6: 225
Critical_ROB_Stalls_Percent_7_Bucket_0: 499201
Non-critical_ROB_Stalls_Percent_7_Bucket_0: 165141
Critical_ROB_Stalls_Percent_7_Bucket_1: 77123
Non-critical_ROB_Stalls_Percent_7_Bucket_1: 32827
Critical_ROB_Stalls_Percent_7_Bucket_2: 30540
Non-critical_ROB_Stalls_Percent_7_Bucket_2: 6696
Critical_ROB_Stalls_Percent_7_Bucket_3: 9273
Non-critical_ROB_Stalls_Percent_7_Bucket_3: 1098
Critical_ROB_Stalls_Percent_7_Bucket_4: 2422
Non-critical_ROB_Stalls_Percent_7_Bucket_4: 354
Critical_ROB_Stalls_Percent_7_Bucket_5: 342
Non-critical_ROB_Stalls_Percent_7_Bucket_5: 172
Critical_ROB_Stalls_Percent_7_Bucket_6: 63
Non-critical_ROB_Stalls_Percent_7_Bucket_6: 184
Critical_ROB_Stalls_Percent_8_Bucket_0: 526972
Non-critical_ROB_Stalls_Percent_8_Bucket_0: 137370
Critical_ROB_Stalls_Percent_8_Bucket_1: 84018
Non-critical_ROB_Stalls_Percent_8_Bucket_1: 25932
Critical_ROB_Stalls_Percent_8_Bucket_2: 31933
Non-critical_ROB_Stalls_Percent_8_Bucket_2: 5303
Critical_ROB_Stalls_Percent_8_Bucket_3: 9400
Non-critical_ROB_Stalls_Percent_8_Bucket_3: 971
Critical_ROB_Stalls_Percent_8_Bucket_4: 2436
Non-critical_ROB_Stalls_Percent_8_Bucket_4: 340
Critical_ROB_Stalls_Percent_8_Bucket_5: 355
Non-critical_ROB_Stalls_Percent_8_Bucket_5: 159
Critical_ROB_Stalls_Percent_8_Bucket_6: 72
Non-critical_ROB_Stalls_Percent_8_Bucket_6: 175
Average ROB occupancy Load Stall Begin: 30.2457
Average ROB occupancy Load Stall End: 34.8173
Min ROB occupancy Load Stall Begin: 1
Max ROB occupancy Load Stall Begin: 351
Min ROB occupancy Load Stall End: 1
Max ROB occupancy Load Stall End: 352
Average ROB occupancy Critical Load Stall Begin: -nan
Average ROB occupancy Critical Load Stall End: -nan
Min ROB occupancy Critical Load Stall Begin: 400
Max ROB occupancy Critical Load Stall Begin: 0
Min ROB occupancy Critical Load Stall End: 400
Max ROB occupancy Critical Load Stall End: 0
 ROB Load Stall Begin Bucket Count 0: 695549
 ROB Load Stall End Bucket Count 0: 664342
 ROB Critical Load Stall Begin Bucket Count 0: 0
 ROB Critical Load Stall End Bucket Count 0: 0
 ROB Load Stall Begin Bucket Count 1: 86002
 ROB Load Stall End Bucket Count 1: 109950
 ROB Critical Load Stall Begin Bucket Count 1: 0
 ROB Critical Load Stall End Bucket Count 1: 0
 ROB Load Stall Begin Bucket Count 2: 31616
 ROB Load Stall End Bucket Count 2: 37236
 ROB Critical Load Stall Begin Bucket Count 2: 0
 ROB Critical Load Stall End Bucket Count 2: 0
 ROB Load Stall Begin Bucket Count 3: 9283
 ROB Load Stall End Bucket Count 3: 10371
 ROB Critical Load Stall Begin Bucket Count 3: 0
 ROB Critical Load Stall End Bucket Count 3: 0
 ROB Load Stall Begin Bucket Count 4: 2296
 ROB Load Stall End Bucket Count 4: 2776
 ROB Critical Load Stall Begin Bucket Count 4: 0
 ROB Critical Load Stall End Bucket Count 4: 0
 ROB Load Stall Begin Bucket Count 5: 464
 ROB Load Stall End Bucket Count 5: 514
 ROB Critical Load Stall Begin Bucket Count 5: 0
 ROB Critical Load Stall End Bucket Count 5: 0
 ROB Load Stall Begin Bucket Count 6: 226
 ROB Load Stall End Bucket Count 6: 247
 ROB Critical Load Stall Begin Bucket Count 6: 0
 ROB Critical Load Stall End Bucket Count 6: 0
PIST Tag Read Accesses: 228912
PIST Read Accesses: 114456
PIST Tag Write Accesses: 228912
PIST Write Accesses: 114456
Criticality detector called times: 373147
Max global_stall_cycles_count: 183283
Threshold Modified: 1 times, factor: -1
ITLB TOTAL     ACCESS:   10466037  HIT:    9740620  MISS:     725417  HIT %:    93.0688  MISS %:    6.93115   MPKI: 14.5083
ITLB LOAD TRANSLATION ACCESS:    8338646  HIT:    8279814  MISS:      58832  HIT %:    99.2945  MISS %:   0.705534   MPKI: 1.17664
ITLB TRANSLATION FROM L1D PREFETCHER ACCESS:    2127391  HIT:    1460806  MISS:     666585  HIT %:    68.6665  MISS %:    31.3335   MPKI: 13.3317
ITLB PREFETCH  REQUESTED:          0  ISSUED:          0  USEFUL:     545360  USELESS:     121223
ITLB USEFUL LOAD PREFETCHES:     545360 PREFETCH ISSUED TO LOWER LEVEL:          0  ACCURACY: inf
ITLB TIMELY PREFETCHES:     545360 LATE PREFETCHES: 137 DROPPED PREFETCHES: 5274
ITLB PREFETCHES SAME FILL-ORIGIN LEVEL: 0 DIFFERENT FILL-ORIGIN LEVEL: 0
ITLB AVERAGE MISS LATENCY: 9925.46 cycles
ITLB RQ	ACCESS:   15791088	FORWARD:          0	MERGED:    5278485	TO_CACHE:   10512603

DTLB TOTAL     ACCESS:   11208856  HIT:   10683279  MISS:     525577  HIT %:    95.3111  MISS %:    4.68894   MPKI: 10.5115
DTLB LOAD TRANSLATION ACCESS:   11208856  HIT:   10683279  MISS:     525577  HIT %:    95.3111  MISS %:    4.68894   MPKI: 10.5115
DTLB PREFETCH  REQUESTED:          0  ISSUED:          0  USEFUL:          0  USELESS:          0
DTLB USEFUL LOAD PREFETCHES:          0 PREFETCH ISSUED TO LOWER LEVEL:          0  ACCURACY: -nan
DTLB TIMELY PREFETCHES:          0 LATE PREFETCHES: 0 DROPPED PREFETCHES: 0
DTLB PREFETCHES SAME FILL-ORIGIN LEVEL: 0 DIFFERENT FILL-ORIGIN LEVEL: 0
DTLB AVERAGE MISS LATENCY: 9.41091 cycles
DTLB RQ	ACCESS:   14729723	FORWARD:          0	MERGED:    3493391	TO_CACHE:   11236332

STLB TOTAL     ACCESS:    1625049  HIT:    1615789  MISS:       9260  HIT %:    99.4302  MISS %:   0.569829   MPKI: 0.1852
STLB LOAD TRANSLATION ACCESS:     584272  HIT:     579029  MISS:       5243  HIT %:    99.1026  MISS %:   0.897356   MPKI: 0.10486
STLB TRANSLATION FROM L1D PREFETCHER ACCESS:    1040777  HIT:    1036760  MISS:       4017  HIT %:     99.614  MISS %:   0.385962   MPKI: 0.08034
STLB PREFETCH  REQUESTED:          0  ISSUED:          0  USEFUL:       2739  USELESS:       1281
STLB USEFUL LOAD PREFETCHES:       2739 PREFETCH ISSUED TO LOWER LEVEL:          0  ACCURACY: inf
STLB TIMELY PREFETCHES:       2739 LATE PREFETCHES: 0 DROPPED PREFETCHES: 5274
STLB PREFETCHES SAME FILL-ORIGIN LEVEL: 0 DIFFERENT FILL-ORIGIN LEVEL: 0
STLB AVERAGE MISS LATENCY: 36.5676 cycles
STLB RQ	ACCESS:    1916806	FORWARD:          0	MERGED:     286483	TO_CACHE:    1630323

STLB Hit, L1D data hit: 0
STLB Hit, L2C data hit: 0
STLB Hit, LLC data hit: 0
STLB Hit, LLC data miss: 0
STLB STLB hints to L2: 0
L1D TOTAL     ACCESS:   14766048  HIT:   13132196  MISS:    1633852  HIT %:    88.9351  MISS %:    11.0649   MPKI: 32.677
L1D LOAD      ACCESS:    7939937  HIT:    7012005  MISS:     927932  HIT %:    88.3131  MISS %:    11.6869   MPKI: 18.5586
L1D RFO       ACCESS:    6254751  HIT:    5950283  MISS:     304468  HIT %:    95.1322  MISS %:    4.86779   MPKI: 6.08936
L1D PREFETCH  ACCESS:     571360  HIT:     169908  MISS:     401452  HIT %:    29.7375  MISS %:    70.2625   MPKI: 8.02904
L1D PREFETCH  REQUESTED:    1321253  ISSUED:    1321222  USEFUL:     247492  USELESS:     154014
L1D USEFUL LOAD PREFETCHES:     247492 PREFETCH ISSUED TO LOWER LEVEL:     471080  ACCURACY: 52.5371
L1D TIMELY PREFETCHES:     247492 LATE PREFETCHES: 69107 DROPPED PREFETCHES: 0
L1D PREFETCHES SAME FILL-ORIGIN LEVEL: 471080 DIFFERENT FILL-ORIGIN LEVEL: 0
L1D AVERAGE MISS LATENCY: 2.32691e+06 cycles
L1D RQ	ACCESS:   11292477	FORWARD:          0	MERGED:    3162067	TO_CACHE:    7978933
L1D WQ	ACCESS:    6823740	FORWARD:     151623	MERGED:      72950	TO_CACHE:    6750790
L1D PQ	ACCESS:     660684	FORWARD:          0	MERGED:          0	TO_CACHE:     660538

L1D UNIQUE REGIONS ACCESSED: 0
L1D REGIONS CONFLICTS: 0
L1D Cross Page Prefetch Requests: 0
L1D Same Page Prefetch Requests: 1304132
L1D ROI Sum of L1D PQ occupancy: 8480553
L1D PREFETCHES PUSHED FROM L2C: 0
L1I TOTAL     ACCESS:   15693665  HIT:   11487508  MISS:    4206157  HIT %:    73.1984  MISS %:    26.8016   MPKI: 84.1231
L1I LOAD      ACCESS:    9809428  HIT:    9699905  MISS:     109523  HIT %:    98.8835  MISS %:    1.11651   MPKI: 2.19046
L1I PREFETCH  ACCESS:    5884237  HIT:    1787603  MISS:    4096634  HIT %:    30.3795  MISS %:    69.6205   MPKI: 81.9327
L1I PREFETCH  REQUESTED:    6119502  ISSUED:    6099606  USEFUL:    2951856  USELESS:    1144790
L1I USEFUL LOAD PREFETCHES:    2951856 PREFETCH ISSUED TO LOWER LEVEL:    4111339  ACCURACY: 71.7979
L1I TIMELY PREFETCHES:    2951856 LATE PREFETCHES: 14705 DROPPED PREFETCHES: 11679
L1I PREFETCHES SAME FILL-ORIGIN LEVEL: 4111339 DIFFERENT FILL-ORIGIN LEVEL: 0
L1I AVERAGE MISS LATENCY: 180846 cycles
L1I RQ	ACCESS:   13560407	FORWARD:          0	MERGED:    3740105	TO_CACHE:    9820302
L1I PQ	ACCESS:    6099606	FORWARD:          0	MERGED:     128820	TO_CACHE:    5970786

BTB TOTAL     ACCESS:    6033516  HIT:    4123215  MISS:    1910301  HIT %:    68.3385  MISS %:    31.6615   MPKI: 38.206
BTB BRANCH_DIRECT_JUMP	ACCESS:     490939  HIT:     331427  MISS:     159512
BTB BRANCH_INDIRECT	ACCESS:     175853  HIT:     140870  MISS:      34983
BTB BRANCH_CONDITIONAL	ACCESS:    2983032  HIT:    2460633  MISS:     522399
BTB BRANCH_DIRECT_CALL	ACCESS:    1002064  HIT:     623208  MISS:     378856
BTB BRANCH_INDIRECT_CALL	ACCESS:     189782  HIT:     117779  MISS:      72003
BTB BRANCH_RETURN	ACCESS:    1191846  HIT:     449298  MISS:     742548
BTB BRANCH_OTHER ACCESS:          0  HIT:          0  MISS:          0

L2C TOTAL     ACCESS:    8901329  HIT:    7578201  MISS:    1323128  HIT %:    85.1356  MISS %:    14.8644   MPKI: 26.4626
L2C LOAD      ACCESS:     953637  HIT:     790680  MISS:     162957  HIT %:    82.9121  MISS %:    17.0879   MPKI: 3.25914
L2C DATA LOAD MPKI: 2.8037
L2C INSTRUCTION LOAD MPKI: 0.45544
L2C RFO       ACCESS:     303947  HIT:     241872  MISS:      62075  HIT %:     79.577  MISS %:     20.423   MPKI: 1.2415
L2C PREFETCH  ACCESS:    7025374  HIT:    5958337  MISS:    1067037  HIT %:    84.8117  MISS %:    15.1883   MPKI: 21.3407
L2C DATA PREFETCH MPKI: 9.40272
L2C INSTRUCTION PREFETCH MPKI: 11.938
L2C WRITEBACK ACCESS:     603441  HIT:     576860  MISS:      26581  HIT %:    95.5951  MISS %:     4.4049   MPKI: 0.53162
L2C LOAD TRANSLATION ACCESS:       5445  HIT:       2901  MISS:       2544  HIT %:    53.2782  MISS %:    46.7218   MPKI: 0.05088
L2C TRANSLATION FROM L1D PREFETCHER ACCESS:       9485  HIT:       7551  MISS:       1934  HIT %:    79.6099  MISS %:    20.3901   MPKI: 0.03868
L2C PREFETCH  REQUESTED:    5045947  ISSUED:    5045947  USEFUL:      24389  USELESS:    1044494
L2C USEFUL LOAD PREFETCHES:      24389 PREFETCH ISSUED TO LOWER LEVEL:    1068900  ACCURACY: 2.28169
L2C TIMELY PREFETCHES:      24389 LATE PREFETCHES: 1863 DROPPED PREFETCHES: 0
L2C PREFETCHES SAME FILL-ORIGIN LEVEL: 344104 DIFFERENT FILL-ORIGIN LEVEL: 0
L2C AVERAGE MISS LATENCY: 31.1656 cycles
L2C RQ	ACCESS:    1272519	FORWARD:          0	MERGED:          0	TO_CACHE:    1272514
L2C WQ	ACCESS:     603441	FORWARD:         29	MERGED:          0	TO_CACHE:     603441
L2C PQ	ACCESS:    9628366	FORWARD:          0	MERGED:    2575756	TO_CACHE:    7052586

L2C Instructions Evicting Data 309900
L2C Translations Evicting Data 2648
L2C Data Evicting Data 373188
L2C Instructions Evicting Instructions 308146
L2C Translations Evicting Instructions 1424
L2C Data Evicting Instructions 296805
L2C Instructions Evicting Translations 1627
L2C Translations Evicting Translations 406
L2C Data Evicting Translations 2403
L2C Dense regions hint from L2: 0
PSCL5 TOTAL     ACCESS:      14534  HIT:      14534  MISS:          0  HIT %:        100  MISS %:          0   MPKI: 0
PSCL5 LOAD TRANSLATION ACCESS:       5243  HIT:       5243  MISS:          0  HIT %:        100  MISS %:          0   MPKI: 0
PSCL5 TRANSLATION FROM L1D PREFETCHER ACCESS:       9291  HIT:       9291  MISS:          0  HIT %:        100  MISS %:          0   MPKI: 0
PSCL5 PREFETCH  REQUESTED:          0  ISSUED:          0  USEFUL:          0  USELESS:          0
PSCL5 USEFUL LOAD PREFETCHES:          0 PREFETCH ISSUED TO LOWER LEVEL:          0  ACCURACY: -nan
PSCL5 TIMELY PREFETCHES:          0 LATE PREFETCHES: 0 DROPPED PREFETCHES: 0
PSCL5 PREFETCHES SAME FILL-ORIGIN LEVEL: 0 DIFFERENT FILL-ORIGIN LEVEL: 0

PSCL4 TOTAL     ACCESS:       7769  HIT:       7761  MISS:          8  HIT %:     99.897  MISS %:   0.102973   MPKI: 0.00016
PSCL4 LOAD TRANSLATION ACCESS:       2949  HIT:       2941  MISS:          8  HIT %:    99.7287  MISS %:   0.271278   MPKI: 0.00016
PSCL4 TRANSLATION FROM L1D PREFETCHER ACCESS:       4820  HIT:       4820  MISS:          0  HIT %:        100  MISS %:          0   MPKI: 0
PSCL4 PREFETCH  REQUESTED:          0  ISSUED:          0  USEFUL:          0  USELESS:          0
PSCL4 USEFUL LOAD PREFETCHES:          0 PREFETCH ISSUED TO LOWER LEVEL:          0  ACCURACY: -nan
PSCL4 TIMELY PREFETCHES:          0 LATE PREFETCHES: 0 DROPPED PREFETCHES: 0
PSCL4 PREFETCHES SAME FILL-ORIGIN LEVEL: 0 DIFFERENT FILL-ORIGIN LEVEL: 0

PSCL3 TOTAL     ACCESS:      14184  HIT:      14169  MISS:         15  HIT %:    99.8942  MISS %:   0.105753   MPKI: 0.0003
PSCL3 LOAD TRANSLATION ACCESS:       5097  HIT:       5082  MISS:         15  HIT %:    99.7057  MISS %:   0.294291   MPKI: 0.0003
PSCL3 TRANSLATION FROM L1D PREFETCHER ACCESS:       9087  HIT:       9087  MISS:          0  HIT %:        100  MISS %:          0   MPKI: 0
PSCL3 PREFETCH  REQUESTED:          0  ISSUED:          0  USEFUL:          0  USELESS:          0
PSCL3 USEFUL LOAD PREFETCHES:          0 PREFETCH ISSUED TO LOWER LEVEL:          0  ACCURACY: -nan
PSCL3 TIMELY PREFETCHES:          0 LATE PREFETCHES: 0 DROPPED PREFETCHES: 0
PSCL3 PREFETCHES SAME FILL-ORIGIN LEVEL: 0 DIFFERENT FILL-ORIGIN LEVEL: 0

PSCL2 TOTAL     ACCESS:      14457  HIT:      14183  MISS:        274  HIT %:    98.1047  MISS %:    1.89528   MPKI: 0.00548
PSCL2 LOAD TRANSLATION ACCESS:       5330  HIT:       5056  MISS:        274  HIT %:    94.8593  MISS %:    5.14071   MPKI: 0.00548
PSCL2 TRANSLATION FROM L1D PREFETCHER ACCESS:       9127  HIT:       9127  MISS:          0  HIT %:        100  MISS %:          0   MPKI: 0
PSCL2 PREFETCH  REQUESTED:          0  ISSUED:          0  USEFUL:          0  USELESS:          0
PSCL2 USEFUL LOAD PREFETCHES:          0 PREFETCH ISSUED TO LOWER LEVEL:          0  ACCURACY: -nan
PSCL2 TIMELY PREFETCHES:          0 LATE PREFETCHES: 0 DROPPED PREFETCHES: 0
PSCL2 PREFETCHES SAME FILL-ORIGIN LEVEL: 0 DIFFERENT FILL-ORIGIN LEVEL: 0

LLC TOTAL     ACCESS:    1392363  HIT:    1375318  MISS:      17045  HIT %:    98.7758  MISS %:    1.22418   MPKI: 0.3409
LLC LOAD      ACCESS:     161178  HIT:     158575  MISS:       2603  HIT %:     98.385  MISS %:    1.61498   MPKI: 0.05206
LLC RFO       ACCESS:      61986  HIT:      60000  MISS:       1986  HIT %:    96.7961  MISS %:    3.20395   MPKI: 0.03972
LLC PREFETCH  ACCESS:    1068897  HIT:    1056611  MISS:      12286  HIT %:    98.8506  MISS %:    1.14941   MPKI: 0.24572
LLC WRITEBACK ACCESS:      95824  HIT:      95707  MISS:        117  HIT %:    99.8779  MISS %:   0.122099   MPKI: 0.00234
LLC LOAD TRANSLATION ACCESS:       2544  HIT:       2492  MISS:         52  HIT %:     97.956  MISS %:    2.04403   MPKI: 0.00104
LLC TRANSLATION FROM L1D PREFETCHER ACCESS:       1934  HIT:       1933  MISS:          1  HIT %:    99.9483  MISS %:  0.0517063   MPKI: 2e-05
LLC PREFETCH  REQUESTED:          0  ISSUED:          0  USEFUL:        852  USELESS:      10215
LLC USEFUL LOAD PREFETCHES:        852 PREFETCH ISSUED TO LOWER LEVEL:      12286  ACCURACY: 6.93472
LLC TIMELY PREFETCHES:        852 LATE PREFETCHES: 0 DROPPED PREFETCHES: 0
LLC PREFETCHES SAME FILL-ORIGIN LEVEL: 0 DIFFERENT FILL-ORIGIN LEVEL: 0
LLC AVERAGE MISS LATENCY: 138.121 cycles
LLC RQ	ACCESS:     227647	FORWARD:          0	MERGED:          0	TO_CACHE:     227642
LLC WQ	ACCESS:      95824	FORWARD:          8	MERGED:          0	TO_CACHE:      95824
LLC PQ	ACCESS:    1068900	FORWARD:          0	MERGED:          0	TO_CACHE:    1068897

LLC Dense regions hint to LLC: 0

RAW hits: 1097294
Loads Generated: 12389772
Loads sent to L1D: 11292477
Stores Generated: 6823741
Stores sent to L1D: 6823740
Major fault: 0 Minor fault: 2136
Allocated PAGES: 2136
I-Shadow cache 408 bytes
Touched + WorthPF tables 6144 bytes 
MMA filter 174 bytes 
FNL filter 272 bytes 
TOTAL PREFETCHER STORAGE SIZE: 25174 bytes
CPU 0 L1I next line prefetcher final stats

stream: 
stream:times selected: 1381917
stream:pref_filled: 109583
stream:pref_useful: 23930
stream:pref_late: 28753
stream:misses: 15192
stream:misses_by_poll: 0

CS: 
CS:times selected: 230338
CS:pref_filled: 160564
CS:pref_useful: 138945
CS:pref_late: 9165
CS:misses: 21926
CS:misses_by_poll: 0

CPLX: 
CPLX:times selected: 1150741
CPLX:pref_filled: 527065
CPLX:pref_useful: 337703
CPLX:pref_late: 25098
CPLX:misses: 183329
CPLX:misses_by_poll: 52

NL_L1: 
NL:times selected: 1629
NL:pref_filled: 78
NL:pref_useful: 57
NL:pref_late: 11
NL:misses: 101
NL:misses_by_poll: 0

total selections: 2764625
total_filled: 401452
total_useful: 247492
total_late: 94307
total_polluted: 52
total_misses_after_warmup: 966927
conflicts: 3326829
Degree Incremented Times: 57492
Degree Decremented Times: 115662

L1 IP Table Write Accesses: 4466853
L1 IP Table Read Accesses: 1140024
L1 RST Write Accesses: 668284
L1 RST Read Accesses: 1336568
L1 CSPT Write Accesses: 668284
L1 CSPT Read Accesses: 2112462
L1 RR Filter Tag Write Accesses: 660715
L1 RR Filter Tag Read Accesses: 58036304
L1 IP Table Tag Write Accesses: 7978932
L1 IP Table Tag Read Accesses: 7978932
L1 RST Tag Write Accesses: 0
L1 RST Tag Read Accesses: 5776332
L1 RR Filter Write Accesses: 0
L1 RR Filter Read Accesses: 2056885
test: 127353
L2 IP Table Read Accesses: 5890622
L2 IP Table Write Accesses: 10562408
L2 IP Table Tag Read Accesses: 5367791
L2 IP Table Tag Write Accesses: 5367791

DRAM Statistics
 CHANNEL 0
 RQ ROW_BUFFER_HIT:       6213  ROW_BUFFER_MISS:      10715
 DBUS_CONGESTED:         18
 WQ ROW_BUFFER_HIT:        340  ROW_BUFFER_MISS:       2493  FULL:          0

 AVG_CONGESTED_CYCLE: 5
 All warmup complete: 2
Channel 0 Bank busy for read cycles: 0
Channel 0 Bank busy for write cycles: 0
Channel 0
Rank 0
0banks busy for read cycles: 78370766
0banks busy for write cycles: 1509
1banks busy for read cycles: 539784
1banks busy for write cycles: 196589
2banks busy for read cycles: 263310
2banks busy for write cycles: 48407
3banks busy for read cycles: 100075
3banks busy for write cycles: 26628
4banks busy for read cycles: 59117
4banks busy for write cycles: 14505
5banks busy for read cycles: 24282
5banks busy for write cycles: 8764
6banks busy for read cycles: 13398
6banks busy for write cycles: 4663
7banks busy for read cycles: 7678
7banks busy for write cycles: 2328
8banks busy for read cycles: 7431
8banks busy for write cycles: 880

CPU 0 Branch Prediction Accuracy: 99.8445% MPKI: 0.29148 Average ROB Occupancy at Mispredict: 80.1494
Branch types
NOT_BRANCH: 40627788 81.2556%
BRANCH_DIRECT_JUMP: 490939 0.981878%
BRANCH_INDIRECT: 175853 0.351706%
BRANCH_CONDITIONAL: 6321387 12.6428%
BRANCH_DIRECT_CALL: 1002064 2.00413%
BRANCH_INDIRECT_CALL: 189782 0.379564%
BRANCH_RETURN: 1191846 2.38369%
BRANCH_OTHER: 0 0%

DRAM PAGES: 1048576
Allocated PAGES: 2136
