
*** ChampSim Multicore Out-of-Order Simulator ***

Warmup Instructions: 50000000
Simulation Instructions: 50000000
Number of CPUs: 1
LLC sets: 2048
LLC ways: 16
Off-chip DRAM Size: 4096 MB Channels: 1 Width: 64-bit Data Rate: 6400 MT/s
CPU 0 runs ../IPC-traces//server_028.champsimtrace.xz
.xz
NUM_OF_IPS_IN_CRITICAL_IP_TRAINING: 64
NUM_OF_CRITICAL_IP_TRAINING_TABLE_WAYS: 2
NUM_OF_CRITICAL_IP_TRAINING_TABLE_SETS: 32
WOBBLY_CRITICAL_IP_CACHE_SETS: 32
WOBBLY_CRITICAL_IP_CACHE_WAYS: 4
BTB has LRU replacement policy
ITLB has LRU replacement policy
DTLB has LRU replacement policy
STLB has LRU replacement policy
CPU 0 L1I next line prefetcher
L1I has LRU replacement policy
IP Table Entries: 64
L1D has LRU replacement policy
Initialize SRRIP state for L2C
Initialize DRRIP state for LLC
Heartbeat CPU 0 instructions: 10000001 cycles: 2882889 heartbeat IPC: 3.46874 cumulative IPC: 3.46874 (Simulation time: 0 hr 5 min 23 sec) 
Heartbeat CPU 0 instructions: 20000001 cycles: 5760110 heartbeat IPC: 3.47558 cumulative IPC: 3.47216 (Simulation time: 0 hr 9 min 52 sec) 
Heartbeat CPU 0 instructions: 30000001 cycles: 8636875 heartbeat IPC: 3.47613 cumulative IPC: 3.47348 (Simulation time: 0 hr 13 min 55 sec) 
Heartbeat CPU 0 instructions: 40000000 cycles: 11516758 heartbeat IPC: 3.47236 cumulative IPC: 3.4732 (Simulation time: 0 hr 17 min 19 sec) 
Heartbeat CPU 0 instructions: 50000001 cycles: 14395098 heartbeat IPC: 3.47423 cumulative IPC: 3.4734 (Simulation time: 0 hr 20 min 33 sec) 

Warmup complete CPU 0 instructions: 50000001 cycles: 14395098 (Simulation time: 0 hr 20 min 33 sec) 

% increase in all ip prefetch 420.49
% increase in all ip prefetch 0.64177
Heartbeat CPU 0 instructions: 60000000 cycles: 30680812 heartbeat IPC: 0.614035 cumulative IPC: 0.614035 (Simulation time: 0 hr 23 min 32 sec) 
Heartbeat CPU 0 instructions: 70000000 cycles: 46871798 heartbeat IPC: 0.617628 cumulative IPC: 0.615826 (Simulation time: 0 hr 26 min 34 sec) 
Heartbeat CPU 0 instructions: 80000000 cycles: 63061474 heartbeat IPC: 0.617678 cumulative IPC: 0.616442 (Simulation time: 0 hr 29 min 36 sec) 
*** Reached end of trace for Core: 0 Repeating trace: ../IPC-traces//server_028.champsimtrace.xz
Heartbeat CPU 0 instructions: 90000001 cycles: 79178060 heartbeat IPC: 0.620479 cumulative IPC: 0.617446 (Simulation time: 0 hr 32 min 35 sec) 
Heartbeat CPU 0 instructions: 100000003 cycles: 95249014 heartbeat IPC: 0.622241 cumulative IPC: 0.618399 (Simulation time: 0 hr 35 min 49 sec) 
Finished CPU 0 instructions: 50000002 cycles: 80853916 cumulative IPC: 0.618399 (Simulation time: 0 hr 35 min 49 sec) 

ChampSim completed all CPUs

Region of Interest Statistics

CPU 0 cumulative IPC: 0.618399 instructions: 50000002 cycles: 80853916

CPU 0 Average Load ROB stall cycles: 1.9669e+07
CPU 0 Fraction of times ROB stalled by Loads: 35.8097
CPU 0 Percentage of Load stall cycles in Total stall cycles: 2.70759e+08
Issued all: 28033262
Issued LT all: 22112516
rob_not_full_when_issued_lt_all: 22036977
Issued LT one: 17232772
rob_not_full_when_issued_lt_one: 17164768
 Total stall cycles: 68482851
 Total load stall cycles: 185423260290739
CPU 0 NUM of IPS identified critical: 0
CPU 0 Num of Load IPs stalling ROB: 10035
Threshold modification factor: -1
Max PIST entries: 64
Min PIST entries: 0
Avg PIST entries: 32
Trouble in retire width: 0.889397
MaC = Marked as critical.
lt_50_percent_before_Mac: 0
gt_90_percent_before_Mac: 0
gt_75_percent_before_Mac: 0
gt_50_percent_before_Mac: 0
stall_proportion_bin_same_before_after: 0
stall_proportion_bin_lower_before_after: 0
stall_proportion_bin_upper_before_after: 0
average_stall_proportion_before: -nan
average_stall_proportion_after: -nan
Critical IP stalls, total frequency: 0
Non-critical IP stalls, total frequency: 3375852
Total Freq all stalling IPs: 3375852
stat_90_percent_critical_ip_stalls_freq: 3038313
stat_90_percent_non_critical_ip_stalls_freq: 337539
Critical_IP_ROB_Stalls_Bucket_0: 0
Non-critical_IP_ROB_Stalls_Bucket_0: 2349332
Critical_IP_ROB_Stalls_Bucket_1: 0
Non-critical_IP_ROB_Stalls_Bucket_1: 694878
Critical_IP_ROB_Stalls_Bucket_2: 0
Non-critical_IP_ROB_Stalls_Bucket_2: 237324
Critical_IP_ROB_Stalls_Bucket_3: 0
Non-critical_IP_ROB_Stalls_Bucket_3: 61109
Critical_IP_ROB_Stalls_Bucket_4: 0
Non-critical_IP_ROB_Stalls_Bucket_4: 21123
Critical_IP_ROB_Stalls_Bucket_5: 0
Non-critical_IP_ROB_Stalls_Bucket_5: 5987
Critical_IP_ROB_Stalls_Bucket_6: 0
Non-critical_IP_ROB_Stalls_Bucket_6: 6099
0 => IPs accounting for >50 percent of stalls, 1 => 55, 2 => 60, 3 => 65 and so on till 90.
percent50: 50.024 num IPs:  428
percent55: 55.009 num IPs: 610
percent60: 60.0182 num IPs: 821
percent65: 65.0103 num IPs: 1036
percent70: 70.0182 num IPs: 1259
percent75: 75.0101 num IPs: 1482
percent80: 80.0185 num IPs: 1709
percent85: 85.0056 num IPs: 1945
percent90: 90.001 num IPs: 2221
Critical_ROB_Stalls_Percent_0_Bucket_0: 1002746
Non-critical_ROB_Stalls_Percent_0_Bucket_0: 1346586
Critical_ROB_Stalls_Percent_0_Bucket_1: 427446
Non-critical_ROB_Stalls_Percent_0_Bucket_1: 267432
Critical_ROB_Stalls_Percent_0_Bucket_2: 177601
Non-critical_ROB_Stalls_Percent_0_Bucket_2: 59723
Critical_ROB_Stalls_Percent_0_Bucket_3: 52931
Non-critical_ROB_Stalls_Percent_0_Bucket_3: 8178
Critical_ROB_Stalls_Percent_0_Bucket_4: 17645
Non-critical_ROB_Stalls_Percent_0_Bucket_4: 3478
Critical_ROB_Stalls_Percent_0_Bucket_5: 4906
Non-critical_ROB_Stalls_Percent_0_Bucket_5: 1081
Critical_ROB_Stalls_Percent_0_Bucket_6: 5463
Non-critical_ROB_Stalls_Percent_0_Bucket_6: 636
Critical_ROB_Stalls_Percent_1_Bucket_0: 1124854
Non-critical_ROB_Stalls_Percent_1_Bucket_0: 1224478
Critical_ROB_Stalls_Percent_1_Bucket_1: 459310
Non-critical_ROB_Stalls_Percent_1_Bucket_1: 235568
Critical_ROB_Stalls_Percent_1_Bucket_2: 189073
Non-critical_ROB_Stalls_Percent_1_Bucket_2: 48251
Critical_ROB_Stalls_Percent_1_Bucket_3: 54896
Non-critical_ROB_Stalls_Percent_1_Bucket_3: 6213
Critical_ROB_Stalls_Percent_1_Bucket_4: 18414
Non-critical_ROB_Stalls_Percent_1_Bucket_4: 2709
Critical_ROB_Stalls_Percent_1_Bucket_5: 4993
Non-critical_ROB_Stalls_Percent_1_Bucket_5: 994
Critical_ROB_Stalls_Percent_1_Bucket_6: 5483
Non-critical_ROB_Stalls_Percent_1_Bucket_6: 616
Critical_ROB_Stalls_Percent_2_Bucket_0: 1236593
Non-critical_ROB_Stalls_Percent_2_Bucket_0: 1112739
Critical_ROB_Stalls_Percent_2_Bucket_1: 506838
Non-critical_ROB_Stalls_Percent_2_Bucket_1: 188040
Critical_ROB_Stalls_Percent_2_Bucket_2: 197742
Non-critical_ROB_Stalls_Percent_2_Bucket_2: 39582
Critical_ROB_Stalls_Percent_2_Bucket_3: 55483
Non-critical_ROB_Stalls_Percent_2_Bucket_3: 5626
Critical_ROB_Stalls_Percent_2_Bucket_4: 18977
Non-critical_ROB_Stalls_Percent_2_Bucket_4: 2146
Critical_ROB_Stalls_Percent_2_Bucket_5: 5004
Non-critical_ROB_Stalls_Percent_2_Bucket_5: 983
Critical_ROB_Stalls_Percent_2_Bucket_6: 5486
Non-critical_ROB_Stalls_Percent_2_Bucket_6: 613
Critical_ROB_Stalls_Percent_3_Bucket_0: 1371874
Non-critical_ROB_Stalls_Percent_3_Bucket_0: 977458
Critical_ROB_Stalls_Percent_3_Bucket_1: 533149
Non-critical_ROB_Stalls_Percent_3_Bucket_1: 161729
Critical_ROB_Stalls_Percent_3_Bucket_2: 204137
Non-critical_ROB_Stalls_Percent_3_Bucket_2: 33187
Critical_ROB_Stalls_Percent_3_Bucket_3: 55784
Non-critical_ROB_Stalls_Percent_3_Bucket_3: 5325
Critical_ROB_Stalls_Percent_3_Bucket_4: 19193
Non-critical_ROB_Stalls_Percent_3_Bucket_4: 1930
Critical_ROB_Stalls_Percent_3_Bucket_5: 5009
Non-critical_ROB_Stalls_Percent_3_Bucket_5: 978
Critical_ROB_Stalls_Percent_3_Bucket_6: 5502
Non-critical_ROB_Stalls_Percent_3_Bucket_6: 597
Critical_ROB_Stalls_Percent_4_Bucket_0: 1502965
Non-critical_ROB_Stalls_Percent_4_Bucket_0: 846367
Critical_ROB_Stalls_Percent_4_Bucket_1: 561825
Non-critical_ROB_Stalls_Percent_4_Bucket_1: 133053
Critical_ROB_Stalls_Percent_4_Bucket_2: 212916
Non-critical_ROB_Stalls_Percent_4_Bucket_2: 24408
Critical_ROB_Stalls_Percent_4_Bucket_3: 56296
Non-critical_ROB_Stalls_Percent_4_Bucket_3: 4813
Critical_ROB_Stalls_Percent_4_Bucket_4: 19197
Non-critical_ROB_Stalls_Percent_4_Bucket_4: 1926
Critical_ROB_Stalls_Percent_4_Bucket_5: 5009
Non-critical_ROB_Stalls_Percent_4_Bucket_5: 978
Critical_ROB_Stalls_Percent_4_Bucket_6: 5502
Non-critical_ROB_Stalls_Percent_4_Bucket_6: 597
Critical_ROB_Stalls_Percent_5_Bucket_0: 1639772
Non-critical_ROB_Stalls_Percent_5_Bucket_0: 709560
Critical_ROB_Stalls_Percent_5_Bucket_1: 590754
Non-critical_ROB_Stalls_Percent_5_Bucket_1: 104124
Critical_ROB_Stalls_Percent_5_Bucket_2: 215705
Non-critical_ROB_Stalls_Percent_5_Bucket_2: 21619
Critical_ROB_Stalls_Percent_5_Bucket_3: 56302
Non-critical_ROB_Stalls_Percent_5_Bucket_3: 4807
Critical_ROB_Stalls_Percent_5_Bucket_4: 19200
Non-critical_ROB_Stalls_Percent_5_Bucket_4: 1923
Critical_ROB_Stalls_Percent_5_Bucket_5: 5009
Non-critical_ROB_Stalls_Percent_5_Bucket_5: 978
Critical_ROB_Stalls_Percent_5_Bucket_6: 5502
Non-critical_ROB_Stalls_Percent_5_Bucket_6: 597
Critical_ROB_Stalls_Percent_6_Bucket_0: 1785650
Non-critical_ROB_Stalls_Percent_6_Bucket_0: 563682
Critical_ROB_Stalls_Percent_6_Bucket_1: 609593
Non-critical_ROB_Stalls_Percent_6_Bucket_1: 85285
Critical_ROB_Stalls_Percent_6_Bucket_2: 219851
Non-critical_ROB_Stalls_Percent_6_Bucket_2: 17473
Critical_ROB_Stalls_Percent_6_Bucket_3: 56427
Non-critical_ROB_Stalls_Percent_6_Bucket_3: 4682
Critical_ROB_Stalls_Percent_6_Bucket_4: 19245
Non-critical_ROB_Stalls_Percent_6_Bucket_4: 1878
Critical_ROB_Stalls_Percent_6_Bucket_5: 5033
Non-critical_ROB_Stalls_Percent_6_Bucket_5: 954
Critical_ROB_Stalls_Percent_6_Bucket_6: 5517
Non-critical_ROB_Stalls_Percent_6_Bucket_6: 582
Critical_ROB_Stalls_Percent_7_Bucket_0: 1934774
Non-critical_ROB_Stalls_Percent_7_Bucket_0: 414558
Critical_ROB_Stalls_Percent_7_Bucket_1: 626361
Non-critical_ROB_Stalls_Percent_7_Bucket_1: 68517
Critical_ROB_Stalls_Percent_7_Bucket_2: 222093
Non-critical_ROB_Stalls_Percent_7_Bucket_2: 15231
Critical_ROB_Stalls_Percent_7_Bucket_3: 56607
Non-critical_ROB_Stalls_Percent_7_Bucket_3: 4502
Critical_ROB_Stalls_Percent_7_Bucket_4: 19288
Non-critical_ROB_Stalls_Percent_7_Bucket_4: 1835
Critical_ROB_Stalls_Percent_7_Bucket_5: 5035
Non-critical_ROB_Stalls_Percent_7_Bucket_5: 952
Critical_ROB_Stalls_Percent_7_Bucket_6: 5517
Non-critical_ROB_Stalls_Percent_7_Bucket_6: 582
Critical_ROB_Stalls_Percent_8_Bucket_0: 2079359
Non-critical_ROB_Stalls_Percent_8_Bucket_0: 269973
Critical_ROB_Stalls_Percent_8_Bucket_1: 644074
Non-critical_ROB_Stalls_Percent_8_Bucket_1: 50804
Critical_ROB_Stalls_Percent_8_Bucket_2: 225431
Non-critical_ROB_Stalls_Percent_8_Bucket_2: 11893
Critical_ROB_Stalls_Percent_8_Bucket_3: 57779
Non-critical_ROB_Stalls_Percent_8_Bucket_3: 3330
Critical_ROB_Stalls_Percent_8_Bucket_4: 19997
Non-critical_ROB_Stalls_Percent_8_Bucket_4: 1126
Critical_ROB_Stalls_Percent_8_Bucket_5: 5735
Non-critical_ROB_Stalls_Percent_8_Bucket_5: 252
Critical_ROB_Stalls_Percent_8_Bucket_6: 5938
Non-critical_ROB_Stalls_Percent_8_Bucket_6: 161
Average ROB occupancy Load Stall Begin: 37.0514
Average ROB occupancy Load Stall End: 45.7926
Min ROB occupancy Load Stall Begin: 1
Max ROB occupancy Load Stall Begin: 352
Min ROB occupancy Load Stall End: 1
Max ROB occupancy Load Stall End: 352
Average ROB occupancy Critical Load Stall Begin: -nan
Average ROB occupancy Critical Load Stall End: -nan
Min ROB occupancy Critical Load Stall Begin: 400
Max ROB occupancy Critical Load Stall Begin: 0
Min ROB occupancy Critical Load Stall End: 400
Max ROB occupancy Critical Load Stall End: 0
 ROB Load Stall Begin Bucket Count 0: 2605430
 ROB Load Stall End Bucket Count 0: 2349332
 ROB Critical Load Stall Begin Bucket Count 0: 0
 ROB Critical Load Stall End Bucket Count 0: 0
 ROB Load Stall Begin Bucket Count 1: 516801
 ROB Load Stall End Bucket Count 1: 694878
 ROB Critical Load Stall Begin Bucket Count 1: 0
 ROB Critical Load Stall End Bucket Count 1: 0
 ROB Load Stall Begin Bucket Count 2: 179828
 ROB Load Stall End Bucket Count 2: 237324
 ROB Critical Load Stall Begin Bucket Count 2: 0
 ROB Critical Load Stall End Bucket Count 2: 0
 ROB Load Stall Begin Bucket Count 3: 47630
 ROB Load Stall End Bucket Count 3: 61109
 ROB Critical Load Stall Begin Bucket Count 3: 0
 ROB Critical Load Stall End Bucket Count 3: 0
 ROB Load Stall Begin Bucket Count 4: 16006
 ROB Load Stall End Bucket Count 4: 21123
 ROB Critical Load Stall Begin Bucket Count 4: 0
 ROB Critical Load Stall End Bucket Count 4: 0
 ROB Load Stall Begin Bucket Count 5: 4701
 ROB Load Stall End Bucket Count 5: 5987
 ROB Critical Load Stall Begin Bucket Count 5: 0
 ROB Critical Load Stall End Bucket Count 5: 0
 ROB Load Stall Begin Bucket Count 6: 5456
 ROB Load Stall End Bucket Count 6: 6099
 ROB Critical Load Stall Begin Bucket Count 6: 0
 ROB Critical Load Stall End Bucket Count 6: 0
PIST Tag Read Accesses: 2439584
PIST Read Accesses: 1219792
PIST Tag Write Accesses: 2439584
PIST Write Accesses: 1219792
Criticality detector called times: 3287356
Max global_stall_cycles_count: 2006130
Threshold Modified: 1 times, factor: -1
Sturdy critical IP cache stats: 
 Unused entries: 0
CIC Tag Read Accesses: 0
CIC Read Accesses: 0
CIC Tag Write Accesses: 0
CIC Write Accesses: 0
Wobbly critical IP cache stats: 
 Unused entries: 124
CIC Tag Read Accesses: 82704516
CIC Read Accesses: 0
CIC Tag Write Accesses: 4
CIC Write Accesses: 0
ITLB TOTAL     ACCESS:   10455179  HIT:    9720987  MISS:     734192  HIT %:    92.9777  MISS %:    7.02228   MPKI: 14.6838
ITLB LOAD TRANSLATION ACCESS:    8319721  HIT:    8274954  MISS:      44767  HIT %:    99.4619  MISS %:   0.538083   MPKI: 0.89534
ITLB TRANSLATION FROM L1D PREFETCHER ACCESS:    2135458  HIT:    1446033  MISS:     689425  HIT %:    67.7154  MISS %:    32.2846   MPKI: 13.7885
ITLB PREFETCH  REQUESTED:          0  ISSUED:          0  USEFUL:     555988  USELESS:     133436
ITLB USEFUL LOAD PREFETCHES:     555988 PREFETCH ISSUED TO LOWER LEVEL:          0  ACCURACY: inf
ITLB TIMELY PREFETCHES:     555988 LATE PREFETCHES: 43 DROPPED PREFETCHES: 4694
ITLB PREFETCHES SAME FILL-ORIGIN LEVEL: 0 DIFFERENT FILL-ORIGIN LEVEL: 0
ITLB AVERAGE MISS LATENCY: 2765.37 cycles
ITLB RQ	ACCESS:   15748034	FORWARD:          0	MERGED:    5245315	TO_CACHE:   10502719

DTLB TOTAL     ACCESS:   11107099  HIT:   10568075  MISS:     539024  HIT %:     95.147  MISS %:    4.85297   MPKI: 10.7805
DTLB LOAD TRANSLATION ACCESS:   11107099  HIT:   10568075  MISS:     539024  HIT %:     95.147  MISS %:    4.85297   MPKI: 10.7805
DTLB PREFETCH  REQUESTED:          0  ISSUED:          0  USEFUL:          0  USELESS:          0
DTLB USEFUL LOAD PREFETCHES:          0 PREFETCH ISSUED TO LOWER LEVEL:          0  ACCURACY: -nan
DTLB TIMELY PREFETCHES:          0 LATE PREFETCHES: 0 DROPPED PREFETCHES: 0
DTLB PREFETCHES SAME FILL-ORIGIN LEVEL: 0 DIFFERENT FILL-ORIGIN LEVEL: 0
DTLB AVERAGE MISS LATENCY: 11.2521 cycles
DTLB RQ	ACCESS:   14598233	FORWARD:          0	MERGED:    3462999	TO_CACHE:   11135234

STLB TOTAL     ACCESS:    1294720  HIT:    1273348  MISS:      21372  HIT %:    98.3493  MISS %:     1.6507   MPKI: 0.42744
STLB LOAD TRANSLATION ACCESS:     583748  HIT:     567111  MISS:      16637  HIT %:      97.15  MISS %:    2.85003   MPKI: 0.33274
STLB TRANSLATION FROM L1D PREFETCHER ACCESS:     710972  HIT:     706237  MISS:       4735  HIT %:     99.334  MISS %:    0.66599   MPKI: 0.0947
STLB PREFETCH  REQUESTED:          0  ISSUED:          0  USEFUL:       2611  USELESS:       2123
STLB USEFUL LOAD PREFETCHES:       2611 PREFETCH ISSUED TO LOWER LEVEL:          0  ACCURACY: inf
STLB TIMELY PREFETCHES:       2611 LATE PREFETCHES: 0 DROPPED PREFETCHES: 4694
STLB PREFETCHES SAME FILL-ORIGIN LEVEL: 0 DIFFERENT FILL-ORIGIN LEVEL: 0
STLB AVERAGE MISS LATENCY: 63.756 cycles
STLB RQ	ACCESS:    1317821	FORWARD:          0	MERGED:      18407	TO_CACHE:    1299414

STLB Hit, L1D data hit: 0
STLB Hit, L2C data hit: 0
STLB Hit, LLC data hit: 0
STLB Hit, LLC data miss: 0
STLB STLB hints to L2: 0
L1D TOTAL     ACCESS:   14100084  HIT:   12636893  MISS:    1463191  HIT %:    89.6228  MISS %:    10.3772   MPKI: 29.2638
L1D LOAD      ACCESS:    7872720  HIT:    6745175  MISS:    1127545  HIT %:    85.6778  MISS %:    14.3222   MPKI: 22.5509
L1D RFO       ACCESS:    6190691  HIT:    5883755  MISS:     306936  HIT %:     95.042  MISS %:    4.95802   MPKI: 6.13872
L1D PREFETCH  ACCESS:      36673  HIT:       7963  MISS:      28710  HIT %:    21.7135  MISS %:    78.2865   MPKI: 0.5742
L1D PREFETCH  REQUESTED:      79833  ISSUED:      79825  USEFUL:      10167  USELESS:      18640
L1D USEFUL LOAD PREFETCHES:      10167 PREFETCH ISSUED TO LOWER LEVEL:      30951  ACCURACY: 32.8487
L1D TIMELY PREFETCHES:      10167 LATE PREFETCHES: 2233 DROPPED PREFETCHES: 0
L1D PREFETCHES SAME FILL-ORIGIN LEVEL: 30951 DIFFERENT FILL-ORIGIN LEVEL: 0
L1D AVERAGE MISS LATENCY: 29107 cycles
L1D RQ	ACCESS:   11209437	FORWARD:          0	MERGED:    3153170	TO_CACHE:    7913329
L1D WQ	ACCESS:    6759297	FORWARD:     142941	MERGED:      74393	TO_CACHE:    6684904
L1D PQ	ACCESS:      39914	FORWARD:          0	MERGED:          0	TO_CACHE:      39911

L1D UNIQUE REGIONS ACCESSED: 0
L1D REGIONS CONFLICTS: 0
L1D Cross Page Prefetch Requests: 0
L1D Same Page Prefetch Requests: 697883
L1D ROI Sum of L1D PQ occupancy: 518674
L1D PREFETCHES PUSHED FROM L2C: 0
L1I TOTAL     ACCESS:   15662418  HIT:   11454102  MISS:    4208316  HIT %:    73.1311  MISS %:    26.8689   MPKI: 84.1663
L1I LOAD      ACCESS:    9765746  HIT:    9684584  MISS:      81162  HIT %:    99.1689  MISS %:   0.831089   MPKI: 1.62324
L1I PREFETCH  ACCESS:    5896672  HIT:    1769518  MISS:    4127154  HIT %:    30.0088  MISS %:    69.9912   MPKI: 82.5431
L1I PREFETCH  REQUESTED:    6111952  ISSUED:    6095797  USEFUL:    2932860  USELESS:    1194297
L1I USEFUL LOAD PREFETCHES:    2932860 PREFETCH ISSUED TO LOWER LEVEL:    4140969  ACCURACY: 70.8255
L1I TIMELY PREFETCHES:    2932860 LATE PREFETCHES: 13810 DROPPED PREFETCHES: 11080
L1I PREFETCHES SAME FILL-ORIGIN LEVEL: 4140969 DIFFERENT FILL-ORIGIN LEVEL: 0
L1I AVERAGE MISS LATENCY: 177417 cycles
L1I RQ	ACCESS:   13590292	FORWARD:          0	MERGED:    3815507	TO_CACHE:    9774785
L1I PQ	ACCESS:    6095797	FORWARD:          0	MERGED:     122548	TO_CACHE:    5973249

BTB TOTAL     ACCESS:    6140431  HIT:    4333503  MISS:    1806928  HIT %:    70.5733  MISS %:    29.4267   MPKI: 36.1386
BTB BRANCH_DIRECT_JUMP	ACCESS:     523490  HIT:     378261  MISS:     145229
BTB BRANCH_INDIRECT	ACCESS:     166997  HIT:     132278  MISS:      34719
BTB BRANCH_CONDITIONAL	ACCESS:    3096559  HIT:    2604379  MISS:     492180
BTB BRANCH_DIRECT_CALL	ACCESS:     989489  HIT:     640105  MISS:     349384
BTB BRANCH_INDIRECT_CALL	ACCESS:     187202  HIT:     119541  MISS:      67661
BTB BRANCH_RETURN	ACCESS:    1176694  HIT:     458939  MISS:     717755
BTB BRANCH_OTHER ACCESS:          0  HIT:          0  MISS:          0

L2C TOTAL     ACCESS:    6347424  HIT:    5959381  MISS:     388043  HIT %:    93.8866  MISS %:    6.11339   MPKI: 7.76086
L2C LOAD      ACCESS:    1192614  HIT:    1058675  MISS:     133939  HIT %:    88.7693  MISS %:    11.2307   MPKI: 2.67878
L2C DATA LOAD MPKI: 2.51446
L2C INSTRUCTION LOAD MPKI: 0.16432
L2C RFO       ACCESS:     306928  HIT:     283944  MISS:      22984  HIT %:    92.5116  MISS %:     7.4884   MPKI: 0.45968
L2C PREFETCH  ACCESS:    4222089  HIT:    4012329  MISS:     209760  HIT %:    95.0318  MISS %:    4.96816   MPKI: 4.1952
L2C DATA PREFETCH MPKI: 0.44842
L2C INSTRUCTION PREFETCH MPKI: 3.74678
L2C WRITEBACK ACCESS:     587826  HIT:     578755  MISS:       9071  HIT %:    98.4569  MISS %:    1.54314   MPKI: 0.18142
L2C LOAD TRANSLATION ACCESS:      24880  HIT:      13987  MISS:      10893  HIT %:    56.2178  MISS %:    43.7822   MPKI: 0.21786
L2C TRANSLATION FROM L1D PREFETCHER ACCESS:      13087  HIT:      11691  MISS:       1396  HIT %:    89.3329  MISS %:    10.6671   MPKI: 0.02792
L2C PREFETCH  REQUESTED:      73246  ISSUED:      73246  USEFUL:       3821  USELESS:     209185
L2C USEFUL LOAD PREFETCHES:       3821 PREFETCH ISSUED TO LOWER LEVEL:     209833  ACCURACY: 1.82097
L2C TIMELY PREFETCHES:       3821 LATE PREFETCHES: 73 DROPPED PREFETCHES: 0
L2C PREFETCHES SAME FILL-ORIGIN LEVEL: 7510 DIFFERENT FILL-ORIGIN LEVEL: 0
L2C AVERAGE MISS LATENCY: 43.6099 cycles
L2C RQ	ACCESS:    1537558	FORWARD:          0	MERGED:          0	TO_CACHE:    1537508
L2C WQ	ACCESS:     587826	FORWARD:         51	MERGED:          0	TO_CACHE:     587826
L2C PQ	ACCESS:    4245166	FORWARD:          0	MERGED:      22380	TO_CACHE:    4222785

L2C Instructions Evicting Data 77257
L2C Translations Evicting Data 7892
L2C Data Evicting Data 91885
L2C Instructions Evicting Instructions 114868
L2C Translations Evicting Instructions 3489
L2C Data Evicting Instructions 71595
L2C Instructions Evicting Translations 3430
L2C Translations Evicting Translations 908
L2C Data Evicting Translations 7648
L2C Dense regions hint from L2: 0
PSCL5 TOTAL     ACCESS:      26066  HIT:      26066  MISS:          0  HIT %:        100  MISS %:          0   MPKI: 0
PSCL5 LOAD TRANSLATION ACCESS:      16637  HIT:      16637  MISS:          0  HIT %:        100  MISS %:          0   MPKI: 0
PSCL5 TRANSLATION FROM L1D PREFETCHER ACCESS:       9429  HIT:       9429  MISS:          0  HIT %:        100  MISS %:          0   MPKI: 0
PSCL5 PREFETCH  REQUESTED:          0  ISSUED:          0  USEFUL:          0  USELESS:          0
PSCL5 USEFUL LOAD PREFETCHES:          0 PREFETCH ISSUED TO LOWER LEVEL:          0  ACCURACY: -nan
PSCL5 TIMELY PREFETCHES:          0 LATE PREFETCHES: 0 DROPPED PREFETCHES: 0
PSCL5 PREFETCHES SAME FILL-ORIGIN LEVEL: 0 DIFFERENT FILL-ORIGIN LEVEL: 0

PSCL4 TOTAL     ACCESS:      25133  HIT:      24944  MISS:        189  HIT %:     99.248  MISS %:   0.751999   MPKI: 0.00378
PSCL4 LOAD TRANSLATION ACCESS:      15820  HIT:      15631  MISS:        189  HIT %:    98.8053  MISS %:    1.19469   MPKI: 0.00378
PSCL4 TRANSLATION FROM L1D PREFETCHER ACCESS:       9313  HIT:       9313  MISS:          0  HIT %:        100  MISS %:          0   MPKI: 0
PSCL4 PREFETCH  REQUESTED:          0  ISSUED:          0  USEFUL:          0  USELESS:          0
PSCL4 USEFUL LOAD PREFETCHES:          0 PREFETCH ISSUED TO LOWER LEVEL:          0  ACCURACY: -nan
PSCL4 TIMELY PREFETCHES:          0 LATE PREFETCHES: 0 DROPPED PREFETCHES: 0
PSCL4 PREFETCHES SAME FILL-ORIGIN LEVEL: 0 DIFFERENT FILL-ORIGIN LEVEL: 0

PSCL3 TOTAL     ACCESS:      25901  HIT:      25712  MISS:        189  HIT %:    99.2703  MISS %:   0.729702   MPKI: 0.00378
PSCL3 LOAD TRANSLATION ACCESS:      16588  HIT:      16399  MISS:        189  HIT %:    98.8606  MISS %:    1.13938   MPKI: 0.00378
PSCL3 TRANSLATION FROM L1D PREFETCHER ACCESS:       9313  HIT:       9313  MISS:          0  HIT %:        100  MISS %:          0   MPKI: 0
PSCL3 PREFETCH  REQUESTED:          0  ISSUED:          0  USEFUL:          0  USELESS:          0
PSCL3 USEFUL LOAD PREFETCHES:          0 PREFETCH ISSUED TO LOWER LEVEL:          0  ACCURACY: -nan
PSCL3 TIMELY PREFETCHES:          0 LATE PREFETCHES: 0 DROPPED PREFETCHES: 0
PSCL3 PREFETCHES SAME FILL-ORIGIN LEVEL: 0 DIFFERENT FILL-ORIGIN LEVEL: 0

PSCL2 TOTAL     ACCESS:      24024  HIT:      14607  MISS:       9417  HIT %:    60.8017  MISS %:    39.1983   MPKI: 0.18834
PSCL2 LOAD TRANSLATION ACCESS:      18157  HIT:       8740  MISS:       9417  HIT %:    48.1357  MISS %:    51.8643   MPKI: 0.18834
PSCL2 TRANSLATION FROM L1D PREFETCHER ACCESS:       5867  HIT:       5867  MISS:          0  HIT %:        100  MISS %:          0   MPKI: 0
PSCL2 PREFETCH  REQUESTED:          0  ISSUED:          0  USEFUL:          0  USELESS:          0
PSCL2 USEFUL LOAD PREFETCHES:          0 PREFETCH ISSUED TO LOWER LEVEL:          0  ACCURACY: -nan
PSCL2 TIMELY PREFETCHES:          0 LATE PREFETCHES: 0 DROPPED PREFETCHES: 0
PSCL2 PREFETCHES SAME FILL-ORIGIN LEVEL: 0 DIFFERENT FILL-ORIGIN LEVEL: 0

LLC TOTAL     ACCESS:     412649  HIT:     373765  MISS:      38884  HIT %:     90.577  MISS %:    9.42302   MPKI: 0.77768
LLC LOAD      ACCESS:     133867  HIT:     106994  MISS:      26873  HIT %:    79.9256  MISS %:    20.0744   MPKI: 0.53746
LLC RFO       ACCESS:      22983  HIT:      21004  MISS:       1979  HIT %:    91.3893  MISS %:    8.61071   MPKI: 0.03958
LLC PREFETCH  ACCESS:     209833  HIT:     201613  MISS:       8220  HIT %:    96.0826  MISS %:     3.9174   MPKI: 0.1644
LLC WRITEBACK ACCESS:      33677  HIT:      33519  MISS:        158  HIT %:    99.5308  MISS %:   0.469163   MPKI: 0.00316
LLC LOAD TRANSLATION ACCESS:      10893  HIT:       9257  MISS:       1636  HIT %:    84.9812  MISS %:    15.0188   MPKI: 0.03272
LLC TRANSLATION FROM L1D PREFETCHER ACCESS:       1396  HIT:       1378  MISS:         18  HIT %:    98.7106  MISS %:     1.2894   MPKI: 0.00036
LLC PREFETCH  REQUESTED:          0  ISSUED:          0  USEFUL:       1673  USELESS:      17645
LLC USEFUL LOAD PREFETCHES:       1673 PREFETCH ISSUED TO LOWER LEVEL:       8220  ACCURACY: 20.3528
LLC TIMELY PREFETCHES:       1673 LATE PREFETCHES: 0 DROPPED PREFETCHES: 0
LLC PREFETCHES SAME FILL-ORIGIN LEVEL: 0 DIFFERENT FILL-ORIGIN LEVEL: 0
LLC AVERAGE MISS LATENCY: 142.338 cycles
LLC RQ	ACCESS:     169138	FORWARD:          0	MERGED:          0	TO_CACHE:     169138
LLC WQ	ACCESS:      33677	FORWARD:          0	MERGED:          0	TO_CACHE:      33677
LLC PQ	ACCESS:     209833	FORWARD:          0	MERGED:          0	TO_CACHE:     209833

LLC Dense regions hint to LLC: 0

RAW hits: 1080094
Loads Generated: 12289536
Loads sent to L1D: 11209437
Stores Generated: 6759292
Stores sent to L1D: 6759297
Major fault: 0 Minor fault: 6256
Allocated PAGES: 6256
I-Shadow cache 408 bytes
Touched + WorthPF tables 6144 bytes 
MMA filter 174 bytes 
FNL filter 272 bytes 
TOTAL PREFETCHER STORAGE SIZE: 25174 bytes
CPU 0 L1I next line prefetcher final stats

stream: 
stream:times selected: 1368766
stream:pref_filled: 78000
stream:pref_useful: 16965
stream:pref_late: 5758
stream:misses: 16656
stream:misses_by_poll: 0

CS: 
CS:times selected: 223179
CS:pref_filled: 52081
CS:pref_useful: 42912
CS:pref_late: 2875
CS:misses: 108259
CS:misses_by_poll: 0

CPLX: 
CPLX:times selected: 1143812
CPLX:pref_filled: 308110
CPLX:pref_useful: 179570
CPLX:pref_late: 16902
CPLX:misses: 303818
CPLX:misses_by_poll: 15

NL_L1: 
NL:times selected: 3208
NL:pref_filled: 40
NL:pref_useful: 6
NL:pref_late: 8
NL:misses: 131
NL:misses_by_poll: 0

total selections: 2738965
total_filled: 28710
total_useful: 10167
total_late: 27519
total_polluted: 15
total_misses_after_warmup: 1168152
conflicts: 3267872
Degree Incremented Times: 31670
Degree Decremented Times: 103412

L1 IP Table Write Accesses: 4457374
L1 IP Table Read Accesses: 1189502
L1 RST Write Accesses: 660948
L1 RST Read Accesses: 1321896
L1 CSPT Write Accesses: 660948
L1 CSPT Read Accesses: 2130513
L1 RR Filter Tag Write Accesses: 39922
L1 RR Filter Tag Read Accesses: 3009007
L1 IP Table Tag Write Accesses: 7913327
L1 IP Table Tag Read Accesses: 7913327
L1 RST Tag Write Accesses: 0
L1 RST Tag Read Accesses: 5269094
L1 RR Filter Write Accesses: 0
L1 RR Filter Read Accesses: 107990
test: 163159
L2 IP Table Read Accesses: 5695137
L2 IP Table Write Accesses: 10163964
L2 IP Table Tag Read Accesses: 5293395
L2 IP Table Tag Write Accesses: 5293395

DRAM Statistics
 CHANNEL 0
 RQ ROW_BUFFER_HIT:      12367  ROW_BUFFER_MISS:      26359
 DBUS_CONGESTED:         13
 WQ ROW_BUFFER_HIT:        600  ROW_BUFFER_MISS:       1887  FULL:          0

 AVG_CONGESTED_CYCLE: 4
 All warmup complete: 2
Channel 0 Bank busy for read cycles: 0
Channel 0 Bank busy for write cycles: 0
Channel 0
Rank 0
0banks busy for read cycles: 77046867
0banks busy for write cycles: 1621
1banks busy for read cycles: 2344258
1banks busy for write cycles: 432301
2banks busy for read cycles: 515359
2banks busy for write cycles: 119521
3banks busy for read cycles: 221548
3banks busy for write cycles: 44078
4banks busy for read cycles: 72506
4banks busy for write cycles: 12304
5banks busy for read cycles: 19478
5banks busy for write cycles: 2398
6banks busy for read cycles: 6314
6banks busy for write cycles: 988
7banks busy for read cycles: 4881
7banks busy for write cycles: 145
8banks busy for read cycles: 9149
8banks busy for write cycles: 201

CPU 0 Branch Prediction Accuracy: 99.7093% MPKI: 0.54708 Average ROB Occupancy at Mispredict: 92.1597
Branch types
NOT_BRANCH: 40590763 81.1815%
BRANCH_DIRECT_JUMP: 523490 1.04698%
BRANCH_INDIRECT: 166997 0.333994%
BRANCH_CONDITIONAL: 6365170 12.7303%
BRANCH_DIRECT_CALL: 989489 1.97898%
BRANCH_INDIRECT_CALL: 187202 0.374404%
BRANCH_RETURN: 1176694 2.35339%
BRANCH_OTHER: 0 0%

DRAM PAGES: 1048576
Allocated PAGES: 6256
