
*** ChampSim Multicore Out-of-Order Simulator ***

Warmup Instructions: 50000000
Simulation Instructions: 50000000
Number of CPUs: 1
LLC sets: 2048
LLC ways: 16
Off-chip DRAM Size: 4096 MB Channels: 1 Width: 64-bit Data Rate: 6400 MT/s
CPU 0 runs ../IPC-traces//server_013.champsimtrace.xz
.xz
NUM_OF_IPS_IN_CRITICAL_IP_TRAINING: 64
NUM_OF_CRITICAL_IP_TRAINING_TABLE_WAYS: 2
NUM_OF_CRITICAL_IP_TRAINING_TABLE_SETS: 32
WOBBLY_CRITICAL_IP_CACHE_SETS: 32
WOBBLY_CRITICAL_IP_CACHE_WAYS: 4
BTB has LRU replacement policy
ITLB has LRU replacement policy
DTLB has LRU replacement policy
STLB has LRU replacement policy
CPU 0 L1I next line prefetcher
L1I has LRU replacement policy
IP Table Entries: 64
L1D has LRU replacement policy
Initialize SRRIP state for L2C
Initialize DRRIP state for LLC
Heartbeat CPU 0 instructions: 10000000 cycles: 2764081 heartbeat IPC: 3.61784 cumulative IPC: 3.61784 (Simulation time: 0 hr 4 min 40 sec) 
Heartbeat CPU 0 instructions: 20000001 cycles: 5519508 heartbeat IPC: 3.6292 cumulative IPC: 3.62351 (Simulation time: 0 hr 9 min 3 sec) 
Heartbeat CPU 0 instructions: 30000002 cycles: 8275464 heartbeat IPC: 3.62851 cumulative IPC: 3.62517 (Simulation time: 0 hr 13 min 17 sec) 
Heartbeat CPU 0 instructions: 40000003 cycles: 11029891 heartbeat IPC: 3.63052 cumulative IPC: 3.62651 (Simulation time: 0 hr 17 min 21 sec) 
Heartbeat CPU 0 instructions: 50000000 cycles: 13786095 heartbeat IPC: 3.62818 cumulative IPC: 3.62684 (Simulation time: 0 hr 21 min 14 sec) 

Warmup complete CPU 0 instructions: 50000004 cycles: 13786096 (Simulation time: 0 hr 21 min 14 sec) 

% increase in all ip prefetch 385.734
% increase in all ip prefetch 5.66699
% increase in all ip prefetch -2.34863
Heartbeat CPU 0 instructions: 60000000 cycles: 28334063 heartbeat IPC: 0.687381 cumulative IPC: 0.687381 (Simulation time: 0 hr 25 min 2 sec) 
Heartbeat CPU 0 instructions: 70000003 cycles: 43065307 heartbeat IPC: 0.678829 cumulative IPC: 0.683078 (Simulation time: 0 hr 28 min 33 sec) 
Heartbeat CPU 0 instructions: 80000003 cycles: 57280890 heartbeat IPC: 0.703453 cumulative IPC: 0.689738 (Simulation time: 0 hr 32 min 7 sec) 
Heartbeat CPU 0 instructions: 90000003 cycles: 71628312 heartbeat IPC: 0.696989 cumulative IPC: 0.691536 (Simulation time: 0 hr 35 min 27 sec) 
Heartbeat CPU 0 instructions: 100000000 cycles: 85958803 heartbeat IPC: 0.697813 cumulative IPC: 0.692783 (Simulation time: 0 hr 38 min 45 sec) 
Finished CPU 0 instructions: 50000000 cycles: 72172708 cumulative IPC: 0.692783 (Simulation time: 0 hr 38 min 45 sec) 

ChampSim completed all CPUs

Region of Interest Statistics

CPU 0 cumulative IPC: 0.692783 instructions: 50000000 cycles: 72172708

CPU 0 Average Load ROB stall cycles: 1.92494e+07
CPU 0 Fraction of times ROB stalled by Loads: 38.4977
CPU 0 Percentage of Load stall cycles in Total stall cycles: 2.21499e+08
Issued all: 27619790
Issued LT all: 21485033
rob_not_full_when_issued_lt_all: 20305376
Issued LT one: 17118214
rob_not_full_when_issued_lt_one: 16101405
 Total stall cycles: 58829718
 Total load stall cycles: 130306993504540
CPU 0 NUM of IPS identified critical: 0
CPU 0 Num of Load IPs stalling ROB: 25426
Threshold modification factor: -2
Max PIST entries: 64
Min PIST entries: 0
Avg PIST entries: 32
Trouble in retire width: 0.889353
MaC = Marked as critical.
lt_50_percent_before_Mac: 0
gt_90_percent_before_Mac: 0
gt_75_percent_before_Mac: 0
gt_50_percent_before_Mac: 0
stall_proportion_bin_same_before_after: 0
stall_proportion_bin_lower_before_after: 0
stall_proportion_bin_upper_before_after: 0
average_stall_proportion_before: -nan
average_stall_proportion_after: -nan
Critical IP stalls, total frequency: 0
Non-critical IP stalls, total frequency: 2606067
Total Freq all stalling IPs: 2606067
stat_90_percent_critical_ip_stalls_freq: 2345488
stat_90_percent_non_critical_ip_stalls_freq: 260579
Critical_IP_ROB_Stalls_Bucket_0: 0
Non-critical_IP_ROB_Stalls_Bucket_0: 1341449
Critical_IP_ROB_Stalls_Bucket_1: 0
Non-critical_IP_ROB_Stalls_Bucket_1: 748667
Critical_IP_ROB_Stalls_Bucket_2: 0
Non-critical_IP_ROB_Stalls_Bucket_2: 280772
Critical_IP_ROB_Stalls_Bucket_3: 0
Non-critical_IP_ROB_Stalls_Bucket_3: 97809
Critical_IP_ROB_Stalls_Bucket_4: 0
Non-critical_IP_ROB_Stalls_Bucket_4: 49327
Critical_IP_ROB_Stalls_Bucket_5: 0
Non-critical_IP_ROB_Stalls_Bucket_5: 28684
Critical_IP_ROB_Stalls_Bucket_6: 0
Non-critical_IP_ROB_Stalls_Bucket_6: 59359
0 => IPs accounting for >50 percent of stalls, 1 => 55, 2 => 60, 3 => 65 and so on till 90.
percent50: 50.026 num IPs:  310
percent55: 55.0032 num IPs: 457
percent60: 60.0054 num IPs: 653
percent65: 65.0062 num IPs: 910
percent70: 70.0106 num IPs: 1282
percent75: 75.006 num IPs: 1873
percent80: 80.0014 num IPs: 2798
percent85: 85.0015 num IPs: 4079
percent90: 90.002 num IPs: 6015
Critical_ROB_Stalls_Percent_0_Bucket_0: 631363
Non-critical_ROB_Stalls_Percent_0_Bucket_0: 710086
Critical_ROB_Stalls_Percent_0_Bucket_1: 424016
Non-critical_ROB_Stalls_Percent_0_Bucket_1: 324651
Critical_ROB_Stalls_Percent_0_Bucket_2: 156098
Non-critical_ROB_Stalls_Percent_0_Bucket_2: 124674
Critical_ROB_Stalls_Percent_0_Bucket_3: 38167
Non-critical_ROB_Stalls_Percent_0_Bucket_3: 59642
Critical_ROB_Stalls_Percent_0_Bucket_4: 17646
Non-critical_ROB_Stalls_Percent_0_Bucket_4: 31681
Critical_ROB_Stalls_Percent_0_Bucket_5: 8768
Non-critical_ROB_Stalls_Percent_0_Bucket_5: 19916
Critical_ROB_Stalls_Percent_0_Bucket_6: 27651
Non-critical_ROB_Stalls_Percent_0_Bucket_6: 31708
Critical_ROB_Stalls_Percent_1_Bucket_0: 686196
Non-critical_ROB_Stalls_Percent_1_Bucket_0: 655253
Critical_ROB_Stalls_Percent_1_Bucket_1: 472139
Non-critical_ROB_Stalls_Percent_1_Bucket_1: 276528
Critical_ROB_Stalls_Percent_1_Bucket_2: 172185
Non-critical_ROB_Stalls_Percent_1_Bucket_2: 108587
Critical_ROB_Stalls_Percent_1_Bucket_3: 43698
Non-critical_ROB_Stalls_Percent_1_Bucket_3: 54111
Critical_ROB_Stalls_Percent_1_Bucket_4: 20293
Non-critical_ROB_Stalls_Percent_1_Bucket_4: 29034
Critical_ROB_Stalls_Percent_1_Bucket_5: 10343
Non-critical_ROB_Stalls_Percent_1_Bucket_5: 18341
Critical_ROB_Stalls_Percent_1_Bucket_6: 28565
Non-critical_ROB_Stalls_Percent_1_Bucket_6: 30794
Critical_ROB_Stalls_Percent_2_Bucket_0: 743157
Non-critical_ROB_Stalls_Percent_2_Bucket_0: 598292
Critical_ROB_Stalls_Percent_2_Bucket_1: 513799
Non-critical_ROB_Stalls_Percent_2_Bucket_1: 234868
Critical_ROB_Stalls_Percent_2_Bucket_2: 186104
Non-critical_ROB_Stalls_Percent_2_Bucket_2: 94668
Critical_ROB_Stalls_Percent_2_Bucket_3: 50729
Non-critical_ROB_Stalls_Percent_2_Bucket_3: 47080
Critical_ROB_Stalls_Percent_2_Bucket_4: 24048
Non-critical_ROB_Stalls_Percent_2_Bucket_4: 25279
Critical_ROB_Stalls_Percent_2_Bucket_5: 13503
Non-critical_ROB_Stalls_Percent_2_Bucket_5: 15181
Critical_ROB_Stalls_Percent_2_Bucket_6: 32440
Non-critical_ROB_Stalls_Percent_2_Bucket_6: 26919
Critical_ROB_Stalls_Percent_3_Bucket_0: 809051
Non-critical_ROB_Stalls_Percent_3_Bucket_0: 532398
Critical_ROB_Stalls_Percent_3_Bucket_1: 553602
Non-critical_ROB_Stalls_Percent_3_Bucket_1: 195065
Critical_ROB_Stalls_Percent_3_Bucket_2: 197171
Non-critical_ROB_Stalls_Percent_3_Bucket_2: 83601
Critical_ROB_Stalls_Percent_3_Bucket_3: 55459
Non-critical_ROB_Stalls_Percent_3_Bucket_3: 42350
Critical_ROB_Stalls_Percent_3_Bucket_4: 27013
Non-critical_ROB_Stalls_Percent_3_Bucket_4: 22314
Critical_ROB_Stalls_Percent_3_Bucket_5: 16132
Non-critical_ROB_Stalls_Percent_3_Bucket_5: 12552
Critical_ROB_Stalls_Percent_3_Bucket_6: 35677
Non-critical_ROB_Stalls_Percent_3_Bucket_6: 23682
Critical_ROB_Stalls_Percent_4_Bucket_0: 881625
Non-critical_ROB_Stalls_Percent_4_Bucket_0: 459824
Critical_ROB_Stalls_Percent_4_Bucket_1: 583493
Non-critical_ROB_Stalls_Percent_4_Bucket_1: 165174
Critical_ROB_Stalls_Percent_4_Bucket_2: 209166
Non-critical_ROB_Stalls_Percent_4_Bucket_2: 71606
Critical_ROB_Stalls_Percent_4_Bucket_3: 61846
Non-critical_ROB_Stalls_Percent_4_Bucket_3: 35963
Critical_ROB_Stalls_Percent_4_Bucket_4: 30496
Non-critical_ROB_Stalls_Percent_4_Bucket_4: 18831
Critical_ROB_Stalls_Percent_4_Bucket_5: 18778
Non-critical_ROB_Stalls_Percent_4_Bucket_5: 9906
Critical_ROB_Stalls_Percent_4_Bucket_6: 39118
Non-critical_ROB_Stalls_Percent_4_Bucket_6: 20241
Critical_ROB_Stalls_Percent_5_Bucket_0: 952458
Non-critical_ROB_Stalls_Percent_5_Bucket_0: 388991
Critical_ROB_Stalls_Percent_5_Bucket_1: 617059
Non-critical_ROB_Stalls_Percent_5_Bucket_1: 131608
Critical_ROB_Stalls_Percent_5_Bucket_2: 221597
Non-critical_ROB_Stalls_Percent_5_Bucket_2: 59175
Critical_ROB_Stalls_Percent_5_Bucket_3: 67130
Non-critical_ROB_Stalls_Percent_5_Bucket_3: 30679
Critical_ROB_Stalls_Percent_5_Bucket_4: 34258
Non-critical_ROB_Stalls_Percent_5_Bucket_4: 15069
Critical_ROB_Stalls_Percent_5_Bucket_5: 20475
Non-critical_ROB_Stalls_Percent_5_Bucket_5: 8209
Critical_ROB_Stalls_Percent_5_Bucket_6: 41730
Non-critical_ROB_Stalls_Percent_5_Bucket_6: 17629
Critical_ROB_Stalls_Percent_6_Bucket_0: 1027376
Non-critical_ROB_Stalls_Percent_6_Bucket_0: 314073
Critical_ROB_Stalls_Percent_6_Bucket_1: 649264
Non-critical_ROB_Stalls_Percent_6_Bucket_1: 99403
Critical_ROB_Stalls_Percent_6_Bucket_2: 232925
Non-critical_ROB_Stalls_Percent_6_Bucket_2: 47847
Critical_ROB_Stalls_Percent_6_Bucket_3: 73092
Non-critical_ROB_Stalls_Percent_6_Bucket_3: 24717
Critical_ROB_Stalls_Percent_6_Bucket_4: 37426
Non-critical_ROB_Stalls_Percent_6_Bucket_4: 11901
Critical_ROB_Stalls_Percent_6_Bucket_5: 21690
Non-critical_ROB_Stalls_Percent_6_Bucket_5: 6994
Critical_ROB_Stalls_Percent_6_Bucket_6: 43106
Non-critical_ROB_Stalls_Percent_6_Bucket_6: 16253
Critical_ROB_Stalls_Percent_7_Bucket_0: 1100591
Non-critical_ROB_Stalls_Percent_7_Bucket_0: 240858
Critical_ROB_Stalls_Percent_7_Bucket_1: 675915
Non-critical_ROB_Stalls_Percent_7_Bucket_1: 72752
Critical_ROB_Stalls_Percent_7_Bucket_2: 244146
Non-critical_ROB_Stalls_Percent_7_Bucket_2: 36626
Critical_ROB_Stalls_Percent_7_Bucket_3: 78759
Non-critical_ROB_Stalls_Percent_7_Bucket_3: 19050
Critical_ROB_Stalls_Percent_7_Bucket_4: 41051
Non-critical_ROB_Stalls_Percent_7_Bucket_4: 8276
Critical_ROB_Stalls_Percent_7_Bucket_5: 23900
Non-critical_ROB_Stalls_Percent_7_Bucket_5: 4784
Critical_ROB_Stalls_Percent_7_Bucket_6: 50816
Non-critical_ROB_Stalls_Percent_7_Bucket_6: 8543
Critical_ROB_Stalls_Percent_8_Bucket_0: 1181394
Non-critical_ROB_Stalls_Percent_8_Bucket_0: 160055
Critical_ROB_Stalls_Percent_8_Bucket_1: 701099
Non-critical_ROB_Stalls_Percent_8_Bucket_1: 47568
Critical_ROB_Stalls_Percent_8_Bucket_2: 255304
Non-critical_ROB_Stalls_Percent_8_Bucket_2: 25468
Critical_ROB_Stalls_Percent_8_Bucket_3: 84743
Non-critical_ROB_Stalls_Percent_8_Bucket_3: 13066
Critical_ROB_Stalls_Percent_8_Bucket_4: 43481
Non-critical_ROB_Stalls_Percent_8_Bucket_4: 5846
Critical_ROB_Stalls_Percent_8_Bucket_5: 25393
Non-critical_ROB_Stalls_Percent_8_Bucket_5: 3291
Critical_ROB_Stalls_Percent_8_Bucket_6: 54074
Non-critical_ROB_Stalls_Percent_8_Bucket_6: 5285
Average ROB occupancy Load Stall Begin: 57.216
Average ROB occupancy Load Stall End: 69.0848
Min ROB occupancy Load Stall Begin: 1
Max ROB occupancy Load Stall Begin: 352
Min ROB occupancy Load Stall End: 1
Max ROB occupancy Load Stall End: 352
Average ROB occupancy Critical Load Stall Begin: -nan
Average ROB occupancy Critical Load Stall End: -nan
Min ROB occupancy Critical Load Stall Begin: 400
Max ROB occupancy Critical Load Stall Begin: 0
Min ROB occupancy Critical Load Stall End: 400
Max ROB occupancy Critical Load Stall End: 0
 ROB Load Stall Begin Bucket Count 0: 1635238
 ROB Load Stall End Bucket Count 0: 1341449
 ROB Critical Load Stall Begin Bucket Count 0: 0
 ROB Critical Load Stall End Bucket Count 0: 0
 ROB Load Stall Begin Bucket Count 1: 569534
 ROB Load Stall End Bucket Count 1: 748667
 ROB Critical Load Stall Begin Bucket Count 1: 0
 ROB Critical Load Stall End Bucket Count 1: 0
 ROB Load Stall Begin Bucket Count 2: 215192
 ROB Load Stall End Bucket Count 2: 280772
 ROB Critical Load Stall Begin Bucket Count 2: 0
 ROB Critical Load Stall End Bucket Count 2: 0
 ROB Load Stall Begin Bucket Count 3: 72338
 ROB Load Stall End Bucket Count 3: 97809
 ROB Critical Load Stall Begin Bucket Count 3: 0
 ROB Critical Load Stall End Bucket Count 3: 0
 ROB Load Stall Begin Bucket Count 4: 38508
 ROB Load Stall End Bucket Count 4: 49327
 ROB Critical Load Stall Begin Bucket Count 4: 0
 ROB Critical Load Stall End Bucket Count 4: 0
 ROB Load Stall Begin Bucket Count 5: 24320
 ROB Load Stall End Bucket Count 5: 28684
 ROB Critical Load Stall Begin Bucket Count 5: 0
 ROB Critical Load Stall End Bucket Count 5: 0
 ROB Load Stall Begin Bucket Count 6: 50937
 ROB Load Stall End Bucket Count 6: 59359
 ROB Critical Load Stall Begin Bucket Count 6: 0
 ROB Critical Load Stall End Bucket Count 6: 0
PIST Tag Read Accesses: 3600764
PIST Read Accesses: 1800382
PIST Tag Write Accesses: 3600764
PIST Write Accesses: 1800382
Criticality detector called times: 2560410
Max global_stall_cycles_count: 3329596
Threshold Modified: 2 times, factor: -2
Sturdy critical IP cache stats: 
 Unused entries: 0
CIC Tag Read Accesses: 0
CIC Read Accesses: 0
CIC Tag Write Accesses: 0
CIC Write Accesses: 0
Wobbly critical IP cache stats: 
 Unused entries: 121
CIC Tag Read Accesses: 69226442
CIC Read Accesses: 0
CIC Tag Write Accesses: 18
CIC Write Accesses: 0
ITLB TOTAL     ACCESS:    8982426  HIT:    8726225  MISS:     256201  HIT %:    97.1478  MISS %:    2.85225   MPKI: 5.12402
ITLB LOAD TRANSLATION ACCESS:    7641576  HIT:    7564105  MISS:      77471  HIT %:    98.9862  MISS %:    1.01381   MPKI: 1.54942
ITLB TRANSLATION FROM L1D PREFETCHER ACCESS:    1340850  HIT:    1162120  MISS:     178730  HIT %:    86.6704  MISS %:    13.3296   MPKI: 3.5746
ITLB PREFETCH  REQUESTED:          0  ISSUED:          0  USEFUL:     142247  USELESS:      36493
ITLB USEFUL LOAD PREFETCHES:     142247 PREFETCH ISSUED TO LOWER LEVEL:          0  ACCURACY: inf
ITLB TIMELY PREFETCHES:     142247 LATE PREFETCHES: 862 DROPPED PREFETCHES: 6647
ITLB PREFETCHES SAME FILL-ORIGIN LEVEL: 0 DIFFERENT FILL-ORIGIN LEVEL: 0
ITLB AVERAGE MISS LATENCY: 170468 cycles
ITLB RQ	ACCESS:   12535008	FORWARD:          0	MERGED:    3511558	TO_CACHE:    9023450

DTLB TOTAL     ACCESS:    9353622  HIT:    8697741  MISS:     655881  HIT %:    92.9879  MISS %:    7.01205   MPKI: 13.1176
DTLB LOAD TRANSLATION ACCESS:    9353622  HIT:    8697741  MISS:     655881  HIT %:    92.9879  MISS %:    7.01205   MPKI: 13.1176
DTLB PREFETCH  REQUESTED:          0  ISSUED:          0  USEFUL:          0  USELESS:          0
DTLB USEFUL LOAD PREFETCHES:          0 PREFETCH ISSUED TO LOWER LEVEL:          0  ACCURACY: -nan
DTLB TIMELY PREFETCHES:          0 LATE PREFETCHES: 0 DROPPED PREFETCHES: 0
DTLB PREFETCHES SAME FILL-ORIGIN LEVEL: 0 DIFFERENT FILL-ORIGIN LEVEL: 0
DTLB AVERAGE MISS LATENCY: 15.2796 cycles
DTLB RQ	ACCESS:   11868217	FORWARD:          0	MERGED:    2472652	TO_CACHE:    9395565

STLB TOTAL     ACCESS:     920119  HIT:     793386  MISS:     126733  HIT %:    86.2265  MISS %:    13.7735   MPKI: 2.53466
STLB LOAD TRANSLATION ACCESS:     732490  HIT:     636073  MISS:      96417  HIT %:    86.8371  MISS %:    13.1629   MPKI: 1.92834
STLB TRANSLATION FROM L1D PREFETCHER ACCESS:     187629  HIT:     157313  MISS:      30316  HIT %:    83.8426  MISS %:    16.1574   MPKI: 0.60632
STLB PREFETCH  REQUESTED:          0  ISSUED:          0  USEFUL:      16513  USELESS:      13809
STLB USEFUL LOAD PREFETCHES:      16513 PREFETCH ISSUED TO LOWER LEVEL:          0  ACCURACY: inf
STLB TIMELY PREFETCHES:      16513 LATE PREFETCHES: 6 DROPPED PREFETCHES: 6647
STLB PREFETCHES SAME FILL-ORIGIN LEVEL: 0 DIFFERENT FILL-ORIGIN LEVEL: 0
STLB AVERAGE MISS LATENCY: 46.8876 cycles
STLB RQ	ACCESS:     928399	FORWARD:          0	MERGED:       1626	TO_CACHE:     926773

STLB Hit, L1D data hit: 0
STLB Hit, L2C data hit: 0
STLB Hit, LLC data hit: 0
STLB Hit, LLC data miss: 0
STLB STLB hints to L2: 0
L1D TOTAL     ACCESS:   11718705  HIT:   11068555  MISS:     650150  HIT %:     94.452  MISS %:    5.54797   MPKI: 13.003
L1D LOAD      ACCESS:    6763285  HIT:    6207375  MISS:     555910  HIT %:    91.7805  MISS %:    8.21953   MPKI: 11.1182
L1D RFO       ACCESS:    4946326  HIT:    4857741  MISS:      88585  HIT %:    98.2091  MISS %:    1.79093   MPKI: 1.7717
L1D PREFETCH  ACCESS:       9094  HIT:       3439  MISS:       5655  HIT %:    37.8161  MISS %:    62.1839   MPKI: 0.1131
L1D PREFETCH  REQUESTED:      19342  ISSUED:      19340  USEFUL:       2951  USELESS:       2742
L1D USEFUL LOAD PREFETCHES:       2951 PREFETCH ISSUED TO LOWER LEVEL:       5905  ACCURACY: 49.9746
L1D TIMELY PREFETCHES:       2951 LATE PREFETCHES: 250 DROPPED PREFETCHES: 0
L1D PREFETCHES SAME FILL-ORIGIN LEVEL: 5905 DIFFERENT FILL-ORIGIN LEVEL: 0
L1D AVERAGE MISS LATENCY: 8418.26 cycles
L1D RQ	ACCESS:   10425359	FORWARD:          0	MERGED:    3534486	TO_CACHE:    6803933
L1D WQ	ACCESS:    5191026	FORWARD:      86942	MERGED:     126742	TO_CACHE:    5064284
L1D PQ	ACCESS:       9671	FORWARD:          0	MERGED:          0	TO_CACHE:       9669

L1D UNIQUE REGIONS ACCESSED: 0
L1D REGIONS CONFLICTS: 0
L1D Cross Page Prefetch Requests: 0
L1D Same Page Prefetch Requests: 122661
L1D ROI Sum of L1D PQ occupancy: 126253
L1D PREFETCHES PUSHED FROM L2C: 0
L1I TOTAL     ACCESS:   12366612  HIT:   10251954  MISS:    2114658  HIT %:    82.9003  MISS %:    17.0997   MPKI: 42.2932
L1I LOAD      ACCESS:    9392092  HIT:    9113847  MISS:     278245  HIT %:    97.0375  MISS %:    2.96255   MPKI: 5.5649
L1I PREFETCH  ACCESS:    2974520  HIT:    1138107  MISS:    1836413  HIT %:    38.2619  MISS %:    61.7381   MPKI: 36.7283
L1I PREFETCH  REQUESTED:    3215914  ISSUED:    3207658  USEFUL:    1218033  USELESS:     618416
L1I USEFUL LOAD PREFETCHES:    1218033 PREFETCH ISSUED TO LOWER LEVEL:    1872362  ACCURACY: 65.0533
L1I TIMELY PREFETCHES:    1218033 LATE PREFETCHES: 35949 DROPPED PREFETCHES: 21774
L1I PREFETCHES SAME FILL-ORIGIN LEVEL: 1872362 DIFFERENT FILL-ORIGIN LEVEL: 0
L1I AVERAGE MISS LATENCY: 847483 cycles
L1I RQ	ACCESS:   13659157	FORWARD:          0	MERGED:    4237974	TO_CACHE:    9421183
L1I PQ	ACCESS:    3207658	FORWARD:          0	MERGED:      93833	TO_CACHE:    3113825

BTB TOTAL     ACCESS:    4435959  HIT:    3610046  MISS:     825913  HIT %:    81.3814  MISS %:    18.6186   MPKI: 16.5183
BTB BRANCH_DIRECT_JUMP	ACCESS:     463697  HIT:     397748  MISS:      65949
BTB BRANCH_INDIRECT	ACCESS:     146542  HIT:     112914  MISS:      33628
BTB BRANCH_CONDITIONAL	ACCESS:    2131257  HIT:    1856338  MISS:     274919
BTB BRANCH_DIRECT_CALL	ACCESS:     665004  HIT:     539799  MISS:     125205
BTB BRANCH_INDIRECT_CALL	ACCESS:     165150  HIT:     152297  MISS:      12853
BTB BRANCH_RETURN	ACCESS:     864309  HIT:     550950  MISS:     313359
BTB BRANCH_OTHER ACCESS:          0  HIT:          0  MISS:          0

L2C TOTAL     ACCESS:    3194076  HIT:    1946520  MISS:    1247556  HIT %:    60.9416  MISS %:    39.0584   MPKI: 24.9511
L2C LOAD      ACCESS:     797933  HIT:     373488  MISS:     424445  HIT %:    46.8069  MISS %:    53.1931   MPKI: 8.4889
L2C DATA LOAD MPKI: 6.52908
L2C INSTRUCTION LOAD MPKI: 1.95982
L2C RFO       ACCESS:      88577  HIT:      42141  MISS:      46436  HIT %:    47.5756  MISS %:    52.4244   MPKI: 0.92872
L2C PREFETCH  ACCESS:    1878257  HIT:    1189900  MISS:     688357  HIT %:    63.3513  MISS %:    36.6487   MPKI: 13.7671
L2C DATA PREFETCH MPKI: 0.10686
L2C INSTRUCTION PREFETCH MPKI: 13.6603
L2C WRITEBACK ACCESS:     256193  HIT:     233978  MISS:      22215  HIT %:    91.3288  MISS %:     8.6712   MPKI: 0.4443
L2C LOAD TRANSLATION ACCESS:     126891  HIT:      73293  MISS:      53598  HIT %:    57.7606  MISS %:    42.2394   MPKI: 1.07196
L2C TRANSLATION FROM L1D PREFETCHER ACCESS:      46225  HIT:      33720  MISS:      12505  HIT %:    72.9475  MISS %:    27.0525   MPKI: 0.2501
L2C PREFETCH  REQUESTED:          0  ISSUED:          0  USEFUL:      18832  USELESS:     682692
L2C USEFUL LOAD PREFETCHES:      18832 PREFETCH ISSUED TO LOWER LEVEL:     688361  ACCURACY: 2.73577
L2C TIMELY PREFETCHES:      18832 LATE PREFETCHES: 4 DROPPED PREFETCHES: 0
L2C PREFETCHES SAME FILL-ORIGIN LEVEL: 0 DIFFERENT FILL-ORIGIN LEVEL: 0
L2C AVERAGE MISS LATENCY: 39.4509 cycles
L2C RQ	ACCESS:    1059657	FORWARD:          0	MERGED:          0	TO_CACHE:    1059626
L2C WQ	ACCESS:     256193	FORWARD:         31	MERGED:          0	TO_CACHE:     256193
L2C PQ	ACCESS:    1878267	FORWARD:          0	MERGED:          0	TO_CACHE:    1878267

L2C Instructions Evicting Data 250297
L2C Translations Evicting Data 21294
L2C Data Evicting Data 121559
L2C Instructions Evicting Instructions 488212
L2C Translations Evicting Instructions 42022
L2C Data Evicting Instructions 237049
L2C Instructions Evicting Translations 42496
L2C Translations Evicting Translations 2787
L2C Data Evicting Translations 19625
L2C Dense regions hint from L2: 0
PSCL5 TOTAL     ACCESS:     133380  HIT:     133380  MISS:          0  HIT %:        100  MISS %:          0   MPKI: 0
PSCL5 LOAD TRANSLATION ACCESS:      96411  HIT:      96411  MISS:          0  HIT %:        100  MISS %:          0   MPKI: 0
PSCL5 TRANSLATION FROM L1D PREFETCHER ACCESS:      36969  HIT:      36969  MISS:          0  HIT %:        100  MISS %:          0   MPKI: 0
PSCL5 PREFETCH  REQUESTED:          0  ISSUED:          0  USEFUL:          0  USELESS:          0
PSCL5 USEFUL LOAD PREFETCHES:          0 PREFETCH ISSUED TO LOWER LEVEL:          0  ACCURACY: -nan
PSCL5 TIMELY PREFETCHES:          0 LATE PREFETCHES: 0 DROPPED PREFETCHES: 0
PSCL5 PREFETCHES SAME FILL-ORIGIN LEVEL: 0 DIFFERENT FILL-ORIGIN LEVEL: 0

PSCL4 TOTAL     ACCESS:     128308  HIT:     127956  MISS:        352  HIT %:    99.7257  MISS %:    0.27434   MPKI: 0.00704
PSCL4 LOAD TRANSLATION ACCESS:      93220  HIT:      92868  MISS:        352  HIT %:    99.6224  MISS %:   0.377601   MPKI: 0.00704
PSCL4 TRANSLATION FROM L1D PREFETCHER ACCESS:      35088  HIT:      35088  MISS:          0  HIT %:        100  MISS %:          0   MPKI: 0
PSCL4 PREFETCH  REQUESTED:          0  ISSUED:          0  USEFUL:          0  USELESS:          0
PSCL4 USEFUL LOAD PREFETCHES:          0 PREFETCH ISSUED TO LOWER LEVEL:          0  ACCURACY: -nan
PSCL4 TIMELY PREFETCHES:          0 LATE PREFETCHES: 0 DROPPED PREFETCHES: 0
PSCL4 PREFETCHES SAME FILL-ORIGIN LEVEL: 0 DIFFERENT FILL-ORIGIN LEVEL: 0

PSCL3 TOTAL     ACCESS:     131479  HIT:     130450  MISS:       1029  HIT %:    99.2174  MISS %:   0.782634   MPKI: 0.02058
PSCL3 LOAD TRANSLATION ACCESS:      96160  HIT:      95131  MISS:       1029  HIT %:    98.9299  MISS %:    1.07009   MPKI: 0.02058
PSCL3 TRANSLATION FROM L1D PREFETCHER ACCESS:      35319  HIT:      35319  MISS:          0  HIT %:        100  MISS %:          0   MPKI: 0
PSCL3 PREFETCH  REQUESTED:          0  ISSUED:          0  USEFUL:          0  USELESS:          0
PSCL3 USEFUL LOAD PREFETCHES:          0 PREFETCH ISSUED TO LOWER LEVEL:          0  ACCURACY: -nan
PSCL3 TIMELY PREFETCHES:          0 LATE PREFETCHES: 0 DROPPED PREFETCHES: 0
PSCL3 PREFETCHES SAME FILL-ORIGIN LEVEL: 0 DIFFERENT FILL-ORIGIN LEVEL: 0

PSCL2 TOTAL     ACCESS:     129664  HIT:      96346  MISS:      33318  HIT %:    74.3044  MISS %:    25.6956   MPKI: 0.66636
PSCL2 LOAD TRANSLATION ACCESS:     100301  HIT:      66983  MISS:      33318  HIT %:     66.782  MISS %:     33.218   MPKI: 0.66636
PSCL2 TRANSLATION FROM L1D PREFETCHER ACCESS:      29363  HIT:      29363  MISS:          0  HIT %:        100  MISS %:          0   MPKI: 0
PSCL2 PREFETCH  REQUESTED:          0  ISSUED:          0  USEFUL:          0  USELESS:          0
PSCL2 USEFUL LOAD PREFETCHES:          0 PREFETCH ISSUED TO LOWER LEVEL:          0  ACCURACY: -nan
PSCL2 TIMELY PREFETCHES:          0 LATE PREFETCHES: 0 DROPPED PREFETCHES: 0
PSCL2 PREFETCHES SAME FILL-ORIGIN LEVEL: 0 DIFFERENT FILL-ORIGIN LEVEL: 0

LLC TOTAL     ACCESS:    1356362  HIT:    1277074  MISS:      79288  HIT %:    94.1544  MISS %:    5.84564   MPKI: 1.58576
LLC LOAD      ACCESS:     424440  HIT:     365284  MISS:      59156  HIT %:    86.0626  MISS %:    13.9374   MPKI: 1.18312
LLC RFO       ACCESS:      46436  HIT:      33971  MISS:      12465  HIT %:    73.1566  MISS %:    26.8434   MPKI: 0.2493
LLC PREFETCH  ACCESS:     688361  HIT:     682780  MISS:       5581  HIT %:    99.1892  MISS %:   0.810766   MPKI: 0.11162
LLC WRITEBACK ACCESS:     131022  HIT:     130434  MISS:        588  HIT %:    99.5512  MISS %:    0.44878   MPKI: 0.01176
LLC LOAD TRANSLATION ACCESS:      53598  HIT:      52162  MISS:       1436  HIT %:    97.3208  MISS %:     2.6792   MPKI: 0.02872
LLC TRANSLATION FROM L1D PREFETCHER ACCESS:      12505  HIT:      12443  MISS:         62  HIT %:    99.5042  MISS %:   0.495802   MPKI: 0.00124
LLC PREFETCH  REQUESTED:          0  ISSUED:          0  USEFUL:        699  USELESS:       6523
LLC USEFUL LOAD PREFETCHES:        699 PREFETCH ISSUED TO LOWER LEVEL:       5581  ACCURACY: 12.5246
LLC TIMELY PREFETCHES:        699 LATE PREFETCHES: 0 DROPPED PREFETCHES: 0
LLC PREFETCHES SAME FILL-ORIGIN LEVEL: 0 DIFFERENT FILL-ORIGIN LEVEL: 0
LLC AVERAGE MISS LATENCY: 156.16 cycles
LLC RQ	ACCESS:     536980	FORWARD:          0	MERGED:          0	TO_CACHE:     536979
LLC WQ	ACCESS:     131022	FORWARD:          1	MERGED:          0	TO_CACHE:     131022
LLC PQ	ACCESS:     688361	FORWARD:          0	MERGED:          0	TO_CACHE:     688361

LLC Dense regions hint to LLC: 0

RAW hits: 1033503
Loads Generated: 11458862
Loads sent to L1D: 10425359
Stores Generated: 5191012
Stores sent to L1D: 5191026
Major fault: 0 Minor fault: 6553
Allocated PAGES: 6553
I-Shadow cache 408 bytes
Touched + WorthPF tables 6144 bytes 
MMA filter 174 bytes 
FNL filter 272 bytes 
TOTAL PREFETCHER STORAGE SIZE: 25174 bytes
CPU 0 L1I next line prefetcher final stats

stream: 
stream:times selected: 165086
stream:pref_filled: 34678
stream:pref_useful: 9257
stream:pref_late: 1310
stream:misses: 1599
stream:misses_by_poll: 0

CS: 
CS:times selected: 24509
CS:pref_filled: 16701
CS:pref_useful: 14415
CS:pref_late: 805
CS:misses: 3718
CS:misses_by_poll: 0

CPLX: 
CPLX:times selected: 139267
CPLX:pref_filled: 13321
CPLX:pref_useful: 1722
CPLX:pref_late: 312
CPLX:misses: 10872
CPLX:misses_by_poll: 0

NL_L1: 
NL:times selected: 919
NL:pref_filled: 437
NL:pref_useful: 53
NL:pref_late: 15
NL:misses: 72
NL:misses_by_poll: 0

total selections: 329781
total_filled: 5655
total_useful: 2951
total_late: 2472
total_polluted: 0
total_misses_after_warmup: 35217
conflicts: 176607
Degree Incremented Times: 7728
Degree Decremented Times: 64990

L1 IP Table Write Accesses: 266480
L1 IP Table Read Accesses: 89873
L1 RST Write Accesses: 12505
L1 RST Read Accesses: 25010
L1 CSPT Write Accesses: 12505
L1 CSPT Read Accesses: 21993
L1 RR Filter Tag Write Accesses: 9673
L1 RR Filter Tag Read Accesses: 715495
L1 IP Table Tag Write Accesses: 457120
L1 IP Table Tag Read Accesses: 457120
L1 RST Tag Write Accesses: 0
L1 RST Tag Read Accesses: 99130
L1 RR Filter Write Accesses: 0
L1 RR Filter Read Accesses: 24266
test: 49013

DRAM Statistics
 CHANNEL 0
 RQ ROW_BUFFER_HIT:      12028  ROW_BUFFER_MISS:      66672
 DBUS_CONGESTED:         44
 WQ ROW_BUFFER_HIT:      11232  ROW_BUFFER_MISS:      45866  FULL:          0

 AVG_CONGESTED_CYCLE: 4
 All warmup complete: 2
Channel 0 Bank busy for read cycles: 0
Channel 0 Bank busy for write cycles: 0
Channel 0
Rank 0
0banks busy for read cycles: 58150672
0banks busy for write cycles: 26461
1banks busy for read cycles: 6381748
1banks busy for write cycles: 3675662
2banks busy for read cycles: 1308510
2banks busy for write cycles: 1175085
3banks busy for read cycles: 260812
3banks busy for write cycles: 409448
4banks busy for read cycles: 85033
4banks busy for write cycles: 202072
5banks busy for read cycles: 37131
5banks busy for write cycles: 125113
6banks busy for read cycles: 23690
6banks busy for write cycles: 95166
7banks busy for read cycles: 11708
7banks busy for write cycles: 89557
8banks busy for read cycles: 8918
8banks busy for write cycles: 105923

CPU 0 Branch Prediction Accuracy: 99.4114% MPKI: 1.0933 Average ROB Occupancy at Mispredict: 61.3076
Branch types
NOT_BRANCH: 40713103 81.4262%
BRANCH_DIRECT_JUMP: 463697 0.927394%
BRANCH_INDIRECT: 146542 0.293084%
BRANCH_CONDITIONAL: 6981930 13.9639%
BRANCH_DIRECT_CALL: 665004 1.33001%
BRANCH_INDIRECT_CALL: 165150 0.3303%
BRANCH_RETURN: 864309 1.72862%
BRANCH_OTHER: 0 0%

DRAM PAGES: 1048576
Allocated PAGES: 6553
