
*** ChampSim Multicore Out-of-Order Simulator ***

Warmup Instructions: 50000000
Simulation Instructions: 50000000
Number of CPUs: 1
LLC sets: 2048
LLC ways: 16
Off-chip DRAM Size: 4096 MB Channels: 1 Width: 64-bit Data Rate: 6400 MT/s
CPU 0 runs ../IPC-traces//server_010.champsimtrace.xz
.xz
NUM_OF_IPS_IN_CRITICAL_IP_TRAINING: 64
NUM_OF_CRITICAL_IP_TRAINING_TABLE_WAYS: 2
NUM_OF_CRITICAL_IP_TRAINING_TABLE_SETS: 32
WOBBLY_CRITICAL_IP_CACHE_SETS: 32
WOBBLY_CRITICAL_IP_CACHE_WAYS: 4
BTB has LRU replacement policy
ITLB has LRU replacement policy
DTLB has LRU replacement policy
STLB has LRU replacement policy
CPU 0 L1I next line prefetcher
L1I has LRU replacement policy
L1D has LRU replacement policy
Bingo PHT WAYS: 16 and PHT_SIZE: 16384
Initialize SRRIP state for L2C
Initialize DRRIP state for LLC
Heartbeat CPU 0 instructions: 10000001 cycles: 2762283 heartbeat IPC: 3.62019 cumulative IPC: 3.62019 (Simulation time: 0 hr 3 min 8 sec) 
Heartbeat CPU 0 instructions: 20000003 cycles: 5516326 heartbeat IPC: 3.63103 cumulative IPC: 3.6256 (Simulation time: 0 hr 5 min 34 sec) 
Heartbeat CPU 0 instructions: 30000001 cycles: 8269133 heartbeat IPC: 3.63265 cumulative IPC: 3.62795 (Simulation time: 0 hr 7 min 55 sec) 
Heartbeat CPU 0 instructions: 40000000 cycles: 11023464 heartbeat IPC: 3.63065 cumulative IPC: 3.62862 (Simulation time: 0 hr 9 min 49 sec) 
Heartbeat CPU 0 instructions: 50000003 cycles: 13779206 heartbeat IPC: 3.62879 cumulative IPC: 3.62866 (Simulation time: 0 hr 11 min 41 sec) 

Warmup complete CPU 0 instructions: 50000003 cycles: 13779206 (Simulation time: 0 hr 11 min 41 sec) 

Heartbeat CPU 0 instructions: 60000001 cycles: 27886777 heartbeat IPC: 0.708839 cumulative IPC: 0.708839 (Simulation time: 0 hr 14 min 4 sec) 
Heartbeat CPU 0 instructions: 70000000 cycles: 42012125 heartbeat IPC: 0.707947 cumulative IPC: 0.708393 (Simulation time: 0 hr 16 min 17 sec) 
Heartbeat CPU 0 instructions: 80000003 cycles: 56167174 heartbeat IPC: 0.706462 cumulative IPC: 0.707748 (Simulation time: 0 hr 18 min 33 sec) 
Heartbeat CPU 0 instructions: 90000002 cycles: 70098559 heartbeat IPC: 0.717804 cumulative IPC: 0.710235 (Simulation time: 0 hr 20 min 48 sec) 
Heartbeat CPU 0 instructions: 100000000 cycles: 97752914 heartbeat IPC: 0.361607 cumulative IPC: 0.595424 (Simulation time: 0 hr 24 min 29 sec) 
Finished CPU 0 instructions: 50000001 cycles: 83973729 cumulative IPC: 0.595424 (Simulation time: 0 hr 24 min 29 sec) 

ChampSim completed all CPUs

Region of Interest Statistics

CPU 0 cumulative IPC: 0.595424 instructions: 50000001 cycles: 83973729

CPU 0 Average Load ROB stall cycles: 2.80224e+07
CPU 0 Fraction of times ROB stalled by Loads: 47.3959
CPU 0 Percentage of Load stall cycles in Total stall cycles: 2.88109e+08
Issued all: 33970622
Issued LT all: 28188790
rob_not_full_when_issued_lt_all: 20905982
Issued LT one: 22917527
rob_not_full_when_issued_lt_one: 16141145
 Total stall cycles: 70472779
 Total load stall cycles: 203038741736302
CPU 0 NUM of IPS identified critical: 0
CPU 0 Num of Load IPs stalling ROB: 23902
Threshold modification factor: 0
Max PIST entries: 64
Min PIST entries: 0
Avg PIST entries: 31.59
Trouble in retire width: 0.934407
MaC = Marked as critical.
lt_50_percent_before_Mac: 0
gt_90_percent_before_Mac: 0
gt_75_percent_before_Mac: 0
gt_50_percent_before_Mac: 0
stall_proportion_bin_same_before_after: 0
stall_proportion_bin_lower_before_after: 0
stall_proportion_bin_upper_before_after: 0
average_stall_proportion_before: -nan
average_stall_proportion_after: -nan
Critical IP stalls, total frequency: 0
Non-critical IP stalls, total frequency: 3434107
Total Freq all stalling IPs: 3434107
stat_90_percent_critical_ip_stalls_freq: 3090701
stat_90_percent_non_critical_ip_stalls_freq: 343406
Critical_IP_ROB_Stalls_Bucket_0: 0
Non-critical_IP_ROB_Stalls_Bucket_0: 1203757
Critical_IP_ROB_Stalls_Bucket_1: 0
Non-critical_IP_ROB_Stalls_Bucket_1: 775806
Critical_IP_ROB_Stalls_Bucket_2: 0
Non-critical_IP_ROB_Stalls_Bucket_2: 369512
Critical_IP_ROB_Stalls_Bucket_3: 0
Non-critical_IP_ROB_Stalls_Bucket_3: 224679
Critical_IP_ROB_Stalls_Bucket_4: 0
Non-critical_IP_ROB_Stalls_Bucket_4: 175396
Critical_IP_ROB_Stalls_Bucket_5: 0
Non-critical_IP_ROB_Stalls_Bucket_5: 164467
Critical_IP_ROB_Stalls_Bucket_6: 0
Non-critical_IP_ROB_Stalls_Bucket_6: 520490
0 => IPs accounting for >50 percent of stalls, 1 => 55, 2 => 60, 3 => 65 and so on till 90.
percent50: 50.1201 num IPs:  68
percent55: 55.0296 num IPs: 98
percent60: 60.0533 num IPs: 147
percent65: 65.0232 num IPs: 253
percent70: 70.0185 num IPs: 442
percent75: 75.0044 num IPs: 707
percent80: 80.0061 num IPs: 1142
percent85: 85.0011 num IPs: 1993
percent90: 90.0002 num IPs: 3655
Critical_ROB_Stalls_Percent_0_Bucket_0: 391231
Non-critical_ROB_Stalls_Percent_0_Bucket_0: 812526
Critical_ROB_Stalls_Percent_0_Bucket_1: 269317
Non-critical_ROB_Stalls_Percent_0_Bucket_1: 506489
Critical_ROB_Stalls_Percent_0_Bucket_2: 174992
Non-critical_ROB_Stalls_Percent_0_Bucket_2: 194520
Critical_ROB_Stalls_Percent_0_Bucket_3: 144198
Non-critical_ROB_Stalls_Percent_0_Bucket_3: 80481
Critical_ROB_Stalls_Percent_0_Bucket_4: 131685
Non-critical_ROB_Stalls_Percent_0_Bucket_4: 43711
Critical_ROB_Stalls_Percent_0_Bucket_5: 134106
Non-critical_ROB_Stalls_Percent_0_Bucket_5: 30361
Critical_ROB_Stalls_Percent_0_Bucket_6: 475650
Non-critical_ROB_Stalls_Percent_0_Bucket_6: 44840
Critical_ROB_Stalls_Percent_1_Bucket_0: 440221
Non-critical_ROB_Stalls_Percent_1_Bucket_0: 763536
Critical_ROB_Stalls_Percent_1_Bucket_1: 347254
Non-critical_ROB_Stalls_Percent_1_Bucket_1: 428552
Critical_ROB_Stalls_Percent_1_Bucket_2: 200225
Non-critical_ROB_Stalls_Percent_1_Bucket_2: 169287
Critical_ROB_Stalls_Percent_1_Bucket_3: 148993
Non-critical_ROB_Stalls_Percent_1_Bucket_3: 75686
Critical_ROB_Stalls_Percent_1_Bucket_4: 133656
Non-critical_ROB_Stalls_Percent_1_Bucket_4: 41740
Critical_ROB_Stalls_Percent_1_Bucket_5: 140170
Non-critical_ROB_Stalls_Percent_1_Bucket_5: 24297
Critical_ROB_Stalls_Percent_1_Bucket_6: 479256
Non-critical_ROB_Stalls_Percent_1_Bucket_6: 41234
Critical_ROB_Stalls_Percent_2_Bucket_0: 497869
Non-critical_ROB_Stalls_Percent_2_Bucket_0: 705888
Critical_ROB_Stalls_Percent_2_Bucket_1: 412689
Non-critical_ROB_Stalls_Percent_2_Bucket_1: 363117
Critical_ROB_Stalls_Percent_2_Bucket_2: 225606
Non-critical_ROB_Stalls_Percent_2_Bucket_2: 143906
Critical_ROB_Stalls_Percent_2_Bucket_3: 158808
Non-critical_ROB_Stalls_Percent_2_Bucket_3: 65871
Critical_ROB_Stalls_Percent_2_Bucket_4: 138341
Non-critical_ROB_Stalls_Percent_2_Bucket_4: 37055
Critical_ROB_Stalls_Percent_2_Bucket_5: 142242
Non-critical_ROB_Stalls_Percent_2_Bucket_5: 22225
Critical_ROB_Stalls_Percent_2_Bucket_6: 486740
Non-critical_ROB_Stalls_Percent_2_Bucket_6: 33750
Critical_ROB_Stalls_Percent_3_Bucket_0: 567911
Non-critical_ROB_Stalls_Percent_3_Bucket_0: 635846
Critical_ROB_Stalls_Percent_3_Bucket_1: 464084
Non-critical_ROB_Stalls_Percent_3_Bucket_1: 311722
Critical_ROB_Stalls_Percent_3_Bucket_2: 251020
Non-critical_ROB_Stalls_Percent_3_Bucket_2: 118492
Critical_ROB_Stalls_Percent_3_Bucket_3: 168002
Non-critical_ROB_Stalls_Percent_3_Bucket_3: 56677
Critical_ROB_Stalls_Percent_3_Bucket_4: 143141
Non-critical_ROB_Stalls_Percent_3_Bucket_4: 32255
Critical_ROB_Stalls_Percent_3_Bucket_5: 145681
Non-critical_ROB_Stalls_Percent_3_Bucket_5: 18786
Critical_ROB_Stalls_Percent_3_Bucket_6: 493128
Non-critical_ROB_Stalls_Percent_3_Bucket_6: 27362
Critical_ROB_Stalls_Percent_4_Bucket_0: 637005
Non-critical_ROB_Stalls_Percent_4_Bucket_0: 566752
Critical_ROB_Stalls_Percent_4_Bucket_1: 519578
Non-critical_ROB_Stalls_Percent_4_Bucket_1: 256228
Critical_ROB_Stalls_Percent_4_Bucket_2: 274392
Non-critical_ROB_Stalls_Percent_4_Bucket_2: 95120
Critical_ROB_Stalls_Percent_4_Bucket_3: 178151
Non-critical_ROB_Stalls_Percent_4_Bucket_3: 46528
Critical_ROB_Stalls_Percent_4_Bucket_4: 148685
Non-critical_ROB_Stalls_Percent_4_Bucket_4: 26711
Critical_ROB_Stalls_Percent_4_Bucket_5: 149377
Non-critical_ROB_Stalls_Percent_4_Bucket_5: 15090
Critical_ROB_Stalls_Percent_4_Bucket_6: 497323
Non-critical_ROB_Stalls_Percent_4_Bucket_6: 23167
Critical_ROB_Stalls_Percent_5_Bucket_0: 711726
Non-critical_ROB_Stalls_Percent_5_Bucket_0: 492031
Critical_ROB_Stalls_Percent_5_Bucket_1: 582061
Non-critical_ROB_Stalls_Percent_5_Bucket_1: 193745
Critical_ROB_Stalls_Percent_5_Bucket_2: 289884
Non-critical_ROB_Stalls_Percent_5_Bucket_2: 79628
Critical_ROB_Stalls_Percent_5_Bucket_3: 184182
Non-critical_ROB_Stalls_Percent_5_Bucket_3: 40497
Critical_ROB_Stalls_Percent_5_Bucket_4: 153397
Non-critical_ROB_Stalls_Percent_5_Bucket_4: 21999
Critical_ROB_Stalls_Percent_5_Bucket_5: 153001
Non-critical_ROB_Stalls_Percent_5_Bucket_5: 11466
Critical_ROB_Stalls_Percent_5_Bucket_6: 501483
Non-critical_ROB_Stalls_Percent_5_Bucket_6: 19007
Critical_ROB_Stalls_Percent_6_Bucket_0: 809710
Non-critical_ROB_Stalls_Percent_6_Bucket_0: 394047
Critical_ROB_Stalls_Percent_6_Bucket_1: 626990
Non-critical_ROB_Stalls_Percent_6_Bucket_1: 148816
Critical_ROB_Stalls_Percent_6_Bucket_2: 304101
Non-critical_ROB_Stalls_Percent_6_Bucket_2: 65411
Critical_ROB_Stalls_Percent_6_Bucket_3: 190760
Non-critical_ROB_Stalls_Percent_6_Bucket_3: 33919
Critical_ROB_Stalls_Percent_6_Bucket_4: 156953
Non-critical_ROB_Stalls_Percent_6_Bucket_4: 18443
Critical_ROB_Stalls_Percent_6_Bucket_5: 155108
Non-critical_ROB_Stalls_Percent_6_Bucket_5: 9359
Critical_ROB_Stalls_Percent_6_Bucket_6: 503879
Non-critical_ROB_Stalls_Percent_6_Bucket_6: 16611
Critical_ROB_Stalls_Percent_7_Bucket_0: 898947
Non-critical_ROB_Stalls_Percent_7_Bucket_0: 304810
Critical_ROB_Stalls_Percent_7_Bucket_1: 671428
Non-critical_ROB_Stalls_Percent_7_Bucket_1: 104378
Critical_ROB_Stalls_Percent_7_Bucket_2: 322381
Non-critical_ROB_Stalls_Percent_7_Bucket_2: 47131
Critical_ROB_Stalls_Percent_7_Bucket_3: 199494
Non-critical_ROB_Stalls_Percent_7_Bucket_3: 25185
Critical_ROB_Stalls_Percent_7_Bucket_4: 161937
Non-critical_ROB_Stalls_Percent_7_Bucket_4: 13459
Critical_ROB_Stalls_Percent_7_Bucket_5: 157779
Non-critical_ROB_Stalls_Percent_7_Bucket_5: 6688
Critical_ROB_Stalls_Percent_7_Bucket_6: 507066
Non-critical_ROB_Stalls_Percent_7_Bucket_6: 13424
Critical_ROB_Stalls_Percent_8_Bucket_0: 994587
Non-critical_ROB_Stalls_Percent_8_Bucket_0: 209170
Critical_ROB_Stalls_Percent_8_Bucket_1: 711076
Non-critical_ROB_Stalls_Percent_8_Bucket_1: 64730
Critical_ROB_Stalls_Percent_8_Bucket_2: 338148
Non-critical_ROB_Stalls_Percent_8_Bucket_2: 31364
Critical_ROB_Stalls_Percent_8_Bucket_3: 207678
Non-critical_ROB_Stalls_Percent_8_Bucket_3: 17001
Critical_ROB_Stalls_Percent_8_Bucket_4: 167149
Non-critical_ROB_Stalls_Percent_8_Bucket_4: 8247
Critical_ROB_Stalls_Percent_8_Bucket_5: 160205
Non-critical_ROB_Stalls_Percent_8_Bucket_5: 4262
Critical_ROB_Stalls_Percent_8_Bucket_6: 511858
Non-critical_ROB_Stalls_Percent_8_Bucket_6: 8632
Average ROB occupancy Load Stall Begin: 118.435
Average ROB occupancy Load Stall End: 127.469
Min ROB occupancy Load Stall Begin: 1
Max ROB occupancy Load Stall Begin: 352
Min ROB occupancy Load Stall End: 1
Max ROB occupancy Load Stall End: 352
Average ROB occupancy Critical Load Stall Begin: -nan
Average ROB occupancy Critical Load Stall End: -nan
Min ROB occupancy Critical Load Stall Begin: 400
Max ROB occupancy Critical Load Stall Begin: 0
Min ROB occupancy Critical Load Stall End: 400
Max ROB occupancy Critical Load Stall End: 0
 ROB Load Stall Begin Bucket Count 0: 1492342
 ROB Load Stall End Bucket Count 0: 1203757
 ROB Critical Load Stall Begin Bucket Count 0: 0
 ROB Critical Load Stall End Bucket Count 0: 0
 ROB Load Stall Begin Bucket Count 1: 600455
 ROB Load Stall End Bucket Count 1: 775806
 ROB Critical Load Stall Begin Bucket Count 1: 0
 ROB Critical Load Stall End Bucket Count 1: 0
 ROB Load Stall Begin Bucket Count 2: 311310
 ROB Load Stall End Bucket Count 2: 369512
 ROB Critical Load Stall Begin Bucket Count 2: 0
 ROB Critical Load Stall End Bucket Count 2: 0
 ROB Load Stall Begin Bucket Count 3: 197758
 ROB Load Stall End Bucket Count 3: 224679
 ROB Critical Load Stall Begin Bucket Count 3: 0
 ROB Critical Load Stall End Bucket Count 3: 0
 ROB Load Stall Begin Bucket Count 4: 167845
 ROB Load Stall End Bucket Count 4: 175396
 ROB Critical Load Stall Begin Bucket Count 4: 0
 ROB Critical Load Stall End Bucket Count 4: 0
 ROB Load Stall Begin Bucket Count 5: 157353
 ROB Load Stall End Bucket Count 5: 164467
 ROB Critical Load Stall Begin Bucket Count 5: 0
 ROB Critical Load Stall End Bucket Count 5: 0
 ROB Load Stall Begin Bucket Count 6: 507044
 ROB Load Stall End Bucket Count 6: 520490
 ROB Critical Load Stall Begin Bucket Count 6: 0
 ROB Critical Load Stall End Bucket Count 6: 0
PIST Tag Read Accesses: 2266128
PIST Read Accesses: 1133064
PIST Tag Write Accesses: 2266128
PIST Write Accesses: 1133064
Criticality detector called times: 2331625
Max global_stall_cycles_count: 3335725
Threshold Modified: 0 times, factor: 0
Sturdy critical IP cache stats: 
 Unused entries: 0
CIC Tag Read Accesses: 0
CIC Read Accesses: 0
CIC Tag Write Accesses: 0
CIC Write Accesses: 0
Wobbly critical IP cache stats: 
 Unused entries: 106
CIC Tag Read Accesses: 143149989
CIC Read Accesses: 0
CIC Tag Write Accesses: 62775
CIC Write Accesses: 0
ITLB TOTAL     ACCESS:    9525222  HIT:    9308748  MISS:     216474  HIT %:    97.7274  MISS %:    2.27264   MPKI: 4.32948
ITLB LOAD TRANSLATION ACCESS:    8393439  HIT:    8332432  MISS:      61007  HIT %:    99.2732  MISS %:   0.726842   MPKI: 1.22014
ITLB TRANSLATION FROM L1D PREFETCHER ACCESS:    1131783  HIT:     976316  MISS:     155467  HIT %:    86.2635  MISS %:    13.7365   MPKI: 3.10934
ITLB PREFETCH  REQUESTED:          0  ISSUED:          0  USEFUL:     126598  USELESS:      28868
ITLB USEFUL LOAD PREFETCHES:     126598 PREFETCH ISSUED TO LOWER LEVEL:          0  ACCURACY: inf
ITLB TIMELY PREFETCHES:     126598 LATE PREFETCHES: 1079 DROPPED PREFETCHES: 12631
ITLB PREFETCHES SAME FILL-ORIGIN LEVEL: 0 DIFFERENT FILL-ORIGIN LEVEL: 0
ITLB AVERAGE MISS LATENCY: 229408 cycles
ITLB RQ	ACCESS:   12929576	FORWARD:          0	MERGED:    3364480	TO_CACHE:    9565096

DTLB TOTAL     ACCESS:   10011156  HIT:    8692820  MISS:    1318336  HIT %:    86.8313  MISS %:    13.1687   MPKI: 26.3667
DTLB LOAD TRANSLATION ACCESS:   10011156  HIT:    8692820  MISS:    1318336  HIT %:    86.8313  MISS %:    13.1687   MPKI: 26.3667
DTLB PREFETCH  REQUESTED:          0  ISSUED:          0  USEFUL:          0  USELESS:          0
DTLB USEFUL LOAD PREFETCHES:          0 PREFETCH ISSUED TO LOWER LEVEL:          0  ACCURACY: -nan
DTLB TIMELY PREFETCHES:          0 LATE PREFETCHES: 0 DROPPED PREFETCHES: 0
DTLB PREFETCHES SAME FILL-ORIGIN LEVEL: 0 DIFFERENT FILL-ORIGIN LEVEL: 0
DTLB AVERAGE MISS LATENCY: 11.6179 cycles
DTLB RQ	ACCESS:   13008014	FORWARD:          0	MERGED:    2957881	TO_CACHE:   10050133

STLB TOTAL     ACCESS:    1534810  HIT:    1427313  MISS:     107497  HIT %:    92.9961  MISS %:    7.00393   MPKI: 2.14994
STLB LOAD TRANSLATION ACCESS:    1378264  HIT:    1296159  MISS:      82105  HIT %:    94.0429  MISS %:    5.95713   MPKI: 1.6421
STLB TRANSLATION FROM L1D PREFETCHER ACCESS:     156546  HIT:     131154  MISS:      25392  HIT %:    83.7798  MISS %:    16.2202   MPKI: 0.50784
STLB PREFETCH  REQUESTED:          0  ISSUED:          0  USEFUL:      14738  USELESS:      10656
STLB USEFUL LOAD PREFETCHES:      14738 PREFETCH ISSUED TO LOWER LEVEL:          0  ACCURACY: inf
STLB TIMELY PREFETCHES:      14738 LATE PREFETCHES: 0 DROPPED PREFETCHES: 12631
STLB PREFETCHES SAME FILL-ORIGIN LEVEL: 0 DIFFERENT FILL-ORIGIN LEVEL: 0
STLB AVERAGE MISS LATENCY: 45.5414 cycles
STLB RQ	ACCESS:    1547440	FORWARD:          0	MERGED:          0	TO_CACHE:    1547440

STLB Hit, L1D data hit: 0
STLB Hit, L2C data hit: 0
STLB Hit, LLC data hit: 0
STLB Hit, LLC data miss: 0
STLB STLB hints to L2: 0
L1D TOTAL     ACCESS:   12860773  HIT:   11200789  MISS:    1659984  HIT %:    87.0927  MISS %:    12.9073   MPKI: 33.1997
L1D LOAD      ACCESS:    8113947  HIT:    6546755  MISS:    1567192  HIT %:    80.6852  MISS %:    19.3148   MPKI: 31.3438
L1D RFO       ACCESS:    4746826  HIT:    4654034  MISS:      92792  HIT %:    98.0452  MISS %:    1.95482   MPKI: 1.85584
L1D PREFETCH  REQUESTED:          0  ISSUED:          0  USEFUL:          0  USELESS:          0
L1D USEFUL LOAD PREFETCHES:          0 PREFETCH ISSUED TO LOWER LEVEL:          0  ACCURACY: -nan
L1D TIMELY PREFETCHES:          0 LATE PREFETCHES: 0 DROPPED PREFETCHES: 0
L1D PREFETCHES SAME FILL-ORIGIN LEVEL: 0 DIFFERENT FILL-ORIGIN LEVEL: 0
L1D AVERAGE MISS LATENCY: 26.5537 cycles
L1D RQ	ACCESS:   11601584	FORWARD:          0	MERGED:    3371450	TO_CACHE:    8149582
L1D WQ	ACCESS:    4965307	FORWARD:      80552	MERGED:     106875	TO_CACHE:    4858432

L1D UNIQUE REGIONS ACCESSED: 0
L1D REGIONS CONFLICTS: 0
L1D Cross Page Prefetch Requests: 0
L1D Same Page Prefetch Requests: 0
L1D ROI Sum of L1D PQ occupancy: 0
L1D PREFETCHES PUSHED FROM L2C: 0
L1I TOTAL     ACCESS:   12770969  HIT:   10962141  MISS:    1808828  HIT %:    85.8364  MISS %:    14.1636   MPKI: 36.1766
L1I LOAD      ACCESS:   10143723  HIT:    9925902  MISS:     217821  HIT %:    97.8527  MISS %:    2.14735   MPKI: 4.35642
L1I PREFETCH  ACCESS:    2627246  HIT:    1036239  MISS:    1591007  HIT %:     39.442  MISS %:     60.558   MPKI: 31.8201
L1I PREFETCH  REQUESTED:    2862032  ISSUED:    2853823  USEFUL:    1051962  USELESS:     539017
L1I USEFUL LOAD PREFETCHES:    1051962 PREFETCH ISSUED TO LOWER LEVEL:    1620705  ACCURACY: 64.9077
L1I TIMELY PREFETCHES:    1051962 LATE PREFETCHES: 29698 DROPPED PREFETCHES: 41382
L1I PREFETCHES SAME FILL-ORIGIN LEVEL: 1620705 DIFFERENT FILL-ORIGIN LEVEL: 0
L1I AVERAGE MISS LATENCY: 745954 cycles
L1I RQ	ACCESS:   14600281	FORWARD:          0	MERGED:    4433125	TO_CACHE:   10167156
L1I PQ	ACCESS:    2853823	FORWARD:          0	MERGED:      91403	TO_CACHE:    2762420

BTB TOTAL     ACCESS:    5599982  HIT:    4872063  MISS:     727919  HIT %:    87.0014  MISS %:    12.9986   MPKI: 14.5584
BTB BRANCH_DIRECT_JUMP	ACCESS:     449946  HIT:     393873  MISS:      56073
BTB BRANCH_INDIRECT	ACCESS:     140210  HIT:     110632  MISS:      29578
BTB BRANCH_CONDITIONAL	ACCESS:    3238717  HIT:    3009562  MISS:     229155
BTB BRANCH_DIRECT_CALL	ACCESS:     701578  HIT:     595974  MISS:     105604
BTB BRANCH_INDIRECT_CALL	ACCESS:     168971  HIT:     157981  MISS:      10990
BTB BRANCH_RETURN	ACCESS:     900560  HIT:     604041  MISS:     296519
BTB BRANCH_OTHER ACCESS:          0  HIT:          0  MISS:          0

L2C TOTAL     ACCESS:    3870450  HIT:    2811954  MISS:    1058496  HIT %:    72.6519  MISS %:    27.3481   MPKI: 21.1699
L2C LOAD      ACCESS:    1755291  HIT:    1392447  MISS:     362844  HIT %:    79.3286  MISS %:    20.6714   MPKI: 7.25688
L2C DATA LOAD MPKI: 5.66458
L2C INSTRUCTION LOAD MPKI: 1.5923
L2C RFO       ACCESS:      92792  HIT:      46872  MISS:      45920  HIT %:     50.513  MISS %:     49.487   MPKI: 0.9184
L2C PREFETCH  ACCESS:    1622516  HIT:    1048514  MISS:     574002  HIT %:    64.6227  MISS %:    35.3773   MPKI: 11.48
L2C DATA PREFETCH MPKI: 0.02926
L2C INSTRUCTION PREFETCH MPKI: 11.4508
L2C WRITEBACK ACCESS:     239251  HIT:     218817  MISS:      20434  HIT %:    91.4592  MISS %:    8.54082   MPKI: 0.40868
L2C LOAD TRANSLATION ACCESS:     108542  HIT:      62896  MISS:      45646  HIT %:    57.9462  MISS %:    42.0538   MPKI: 0.91292
L2C TRANSLATION FROM L1D PREFETCHER ACCESS:      52058  HIT:      42408  MISS:       9650  HIT %:     81.463  MISS %:     18.537   MPKI: 0.193
L2C PREFETCH  REQUESTED:       1811  ISSUED:       1811  USEFUL:      17985  USELESS:     566876
L2C USEFUL LOAD PREFETCHES:      17985 PREFETCH ISSUED TO LOWER LEVEL:     574002  ACCURACY: 3.13326
L2C TIMELY PREFETCHES:      17985 LATE PREFETCHES: 0 DROPPED PREFETCHES: 0
L2C PREFETCHES SAME FILL-ORIGIN LEVEL: 1463 DIFFERENT FILL-ORIGIN LEVEL: 0
L2C AVERAGE MISS LATENCY: 38.8294 cycles
L2C RQ	ACCESS:    2008707	FORWARD:          0	MERGED:          0	TO_CACHE:    2008683
L2C WQ	ACCESS:     239251	FORWARD:         24	MERGED:          0	TO_CACHE:     239251
L2C PQ	ACCESS:    1622516	FORWARD:          0	MERGED:          0	TO_CACHE:    1622516

L2C Instructions Evicting Data 216358
L2C Translations Evicting Data 18257
L2C Data Evicting Data 108249
L2C Instructions Evicting Instructions 401855
L2C Translations Evicting Instructions 34196
L2C Data Evicting Instructions 204755
L2C Instructions Evicting Translations 33941
L2C Translations Evicting Translations 2843
L2C Data Evicting Translations 17608
L2C Dense regions hint from L2: 0
PSCL5 TOTAL     ACCESS:     120127  HIT:     120127  MISS:          0  HIT %:        100  MISS %:          0   MPKI: 0
PSCL5 LOAD TRANSLATION ACCESS:      82104  HIT:      82104  MISS:          0  HIT %:        100  MISS %:          0   MPKI: 0
PSCL5 TRANSLATION FROM L1D PREFETCHER ACCESS:      38023  HIT:      38023  MISS:          0  HIT %:        100  MISS %:          0   MPKI: 0
PSCL5 PREFETCH  REQUESTED:          0  ISSUED:          0  USEFUL:          0  USELESS:          0
PSCL5 USEFUL LOAD PREFETCHES:          0 PREFETCH ISSUED TO LOWER LEVEL:          0  ACCURACY: -nan
PSCL5 TIMELY PREFETCHES:          0 LATE PREFETCHES: 0 DROPPED PREFETCHES: 0
PSCL5 PREFETCHES SAME FILL-ORIGIN LEVEL: 0 DIFFERENT FILL-ORIGIN LEVEL: 0

PSCL4 TOTAL     ACCESS:     111436  HIT:     111127  MISS:        309  HIT %:    99.7227  MISS %:   0.277289   MPKI: 0.00618
PSCL4 LOAD TRANSLATION ACCESS:      76869  HIT:      76560  MISS:        309  HIT %:     99.598  MISS %:   0.401983   MPKI: 0.00618
PSCL4 TRANSLATION FROM L1D PREFETCHER ACCESS:      34567  HIT:      34567  MISS:          0  HIT %:        100  MISS %:          0   MPKI: 0
PSCL4 PREFETCH  REQUESTED:          0  ISSUED:          0  USEFUL:          0  USELESS:          0
PSCL4 USEFUL LOAD PREFETCHES:          0 PREFETCH ISSUED TO LOWER LEVEL:          0  ACCURACY: -nan
PSCL4 TIMELY PREFETCHES:          0 LATE PREFETCHES: 0 DROPPED PREFETCHES: 0
PSCL4 PREFETCHES SAME FILL-ORIGIN LEVEL: 0 DIFFERENT FILL-ORIGIN LEVEL: 0

PSCL3 TOTAL     ACCESS:     117931  HIT:     117073  MISS:        858  HIT %:    99.2725  MISS %:   0.727544   MPKI: 0.01716
PSCL3 LOAD TRANSLATION ACCESS:      81834  HIT:      80976  MISS:        858  HIT %:    98.9515  MISS %:    1.04846   MPKI: 0.01716
PSCL3 TRANSLATION FROM L1D PREFETCHER ACCESS:      36097  HIT:      36097  MISS:          0  HIT %:        100  MISS %:          0   MPKI: 0
PSCL3 PREFETCH  REQUESTED:          0  ISSUED:          0  USEFUL:          0  USELESS:          0
PSCL3 USEFUL LOAD PREFETCHES:          0 PREFETCH ISSUED TO LOWER LEVEL:          0  ACCURACY: -nan
PSCL3 TIMELY PREFETCHES:          0 LATE PREFETCHES: 0 DROPPED PREFETCHES: 0
PSCL3 PREFETCHES SAME FILL-ORIGIN LEVEL: 0 DIFFERENT FILL-ORIGIN LEVEL: 0

PSCL2 TOTAL     ACCESS:     111302  HIT:      82520  MISS:      28782  HIT %:    74.1406  MISS %:    25.8594   MPKI: 0.57564
PSCL2 LOAD TRANSLATION ACCESS:      85370  HIT:      56588  MISS:      28782  HIT %:    66.2856  MISS %:    33.7144   MPKI: 0.57564
PSCL2 TRANSLATION FROM L1D PREFETCHER ACCESS:      25932  HIT:      25932  MISS:          0  HIT %:        100  MISS %:          0   MPKI: 0
PSCL2 PREFETCH  REQUESTED:          0  ISSUED:          0  USEFUL:          0  USELESS:          0
PSCL2 USEFUL LOAD PREFETCHES:          0 PREFETCH ISSUED TO LOWER LEVEL:          0  ACCURACY: -nan
PSCL2 TIMELY PREFETCHES:          0 LATE PREFETCHES: 0 DROPPED PREFETCHES: 0
PSCL2 PREFETCHES SAME FILL-ORIGIN LEVEL: 0 DIFFERENT FILL-ORIGIN LEVEL: 0

LLC TOTAL     ACCESS:    1158761  HIT:    1096209  MISS:      62552  HIT %:    94.6018  MISS %:    5.39818   MPKI: 1.25104
LLC LOAD      ACCESS:     362840  HIT:     315692  MISS:      47148  HIT %:    87.0058  MISS %:    12.9942   MPKI: 0.94296
LLC RFO       ACCESS:      45920  HIT:      35329  MISS:      10591  HIT %:     76.936  MISS %:     23.064   MPKI: 0.21182
LLC PREFETCH  ACCESS:     574002  HIT:     570511  MISS:       3491  HIT %:    99.3918  MISS %:   0.608186   MPKI: 0.06982
LLC WRITEBACK ACCESS:     120703  HIT:     120300  MISS:        403  HIT %:    99.6661  MISS %:   0.333877   MPKI: 0.00806
LLC LOAD TRANSLATION ACCESS:      45646  HIT:      44752  MISS:        894  HIT %:    98.0414  MISS %:    1.95855   MPKI: 0.01788
LLC TRANSLATION FROM L1D PREFETCHER ACCESS:       9650  HIT:       9625  MISS:         25  HIT %:    99.7409  MISS %:   0.259067   MPKI: 0.0005
LLC PREFETCH  REQUESTED:          0  ISSUED:          0  USEFUL:        277  USELESS:       2852
LLC USEFUL LOAD PREFETCHES:        277 PREFETCH ISSUED TO LOWER LEVEL:       3491  ACCURACY: 7.93469
LLC TIMELY PREFETCHES:        277 LATE PREFETCHES: 0 DROPPED PREFETCHES: 0
LLC PREFETCHES SAME FILL-ORIGIN LEVEL: 0 DIFFERENT FILL-ORIGIN LEVEL: 0
LLC AVERAGE MISS LATENCY: 158.101 cycles
LLC RQ	ACCESS:     464060	FORWARD:          0	MERGED:          0	TO_CACHE:     464056
LLC WQ	ACCESS:     120702	FORWARD:          4	MERGED:          0	TO_CACHE:     120702
LLC PQ	ACCESS:     574002	FORWARD:          0	MERGED:          0	TO_CACHE:     574002

LLC Dense regions hint to LLC: 0

RAW hits: 1006633
Loads Generated: 12608216
Loads sent to L1D: 11601584
Stores Generated: 4965302
Stores sent to L1D: 4965307
Major fault: 0 Minor fault: 5909
Allocated PAGES: 5909
I-Shadow cache 408 bytes
Touched + WorthPF tables 6144 bytes 
MMA filter 174 bytes 
FNL filter 272 bytes 
TOTAL PREFETCHER STORAGE SIZE: 25174 bytes
CPU 0 L1I next line prefetcher final stats
[Bingo] PHT Access: 1818
[Bingo] PHT Hit PC+Addr: 81
[Bingo] PHT Hit PC+Offs: 46
[Bingo] PHT Miss: 1691
[Bingo] Prefetch PC+Addr: 0
[Bingo] Prefetch PC+Offs: 0
[Bingo] Useful PC+Addr: 0
[Bingo] Useful PC+Offs: 0
[Bingo] Useless PC+Addr: 0
[Bingo] Useless PC+Offs: 0
[Bingo] L1 Prefetch per Region: 0
[Bingo] L2 Prefetch per Region: 15.2598
[Bingo] L3 Prefetch per Region: 0
[Bingo] No Prefetch per Region: 16.7402
[Bingo] Number of Voters Mean: 1.73913
[Bingo] Number of Voters SD: 0.965374
PHT read accesses: 249
PHT write accesses: 137
AT read accesses: 1013148
AT write accesses: 1013216
FT read accesses: 87520
FT write accesses: 1818
PS read accesses: 325
PS write accesses: 127
PHT tag read accesses: 30210
PHT tag write accesses: 218
AT tag read accesses: 33875092
AT tag write accesses: 1013353
FT tag read accesses: 17720917
FT tag write accesses: 45709
PS tag read accesses: 16936239
PS tag write accesses: 452

DRAM Statistics
 CHANNEL 0
 RQ ROW_BUFFER_HIT:       8550  ROW_BUFFER_MISS:      53598
 DBUS_CONGESTED:         21
 WQ ROW_BUFFER_HIT:       9527  ROW_BUFFER_MISS:      40170  FULL:          0

 AVG_CONGESTED_CYCLE: 4
 All warmup complete: 2
Channel 0 Bank busy for read cycles: 0
Channel 0 Bank busy for write cycles: 0
Channel 0
Rank 0
0banks busy for read cycles: 72624935
0banks busy for write cycles: 22761
1banks busy for read cycles: 5024559
1banks busy for write cycles: 3069813
2banks busy for read cycles: 1058237
2banks busy for write cycles: 969475
3banks busy for read cycles: 201527
3banks busy for write cycles: 304758
4banks busy for read cycles: 66515
4banks busy for write cycles: 149943
5banks busy for read cycles: 28001
5banks busy for write cycles: 99745
6banks busy for read cycles: 23203
6banks busy for write cycles: 73279
7banks busy for read cycles: 12258
7banks busy for write cycles: 86992
8banks busy for read cycles: 11386
8banks busy for write cycles: 146343

CPU 0 Branch Prediction Accuracy: 99.5528% MPKI: 0.89798 Average ROB Occupancy at Mispredict: 63.4172
Branch types
NOT_BRANCH: 39958758 79.9175%
BRANCH_DIRECT_JUMP: 449946 0.899892%
BRANCH_INDIRECT: 140210 0.28042%
BRANCH_CONDITIONAL: 7679656 15.3593%
BRANCH_DIRECT_CALL: 701578 1.40316%
BRANCH_INDIRECT_CALL: 168971 0.337942%
BRANCH_RETURN: 900560 1.80112%
BRANCH_OTHER: 0 0%

DRAM PAGES: 1048576
Allocated PAGES: 5909
