
*** ChampSim Multicore Out-of-Order Simulator ***

Warmup Instructions: 50000000
Simulation Instructions: 50000000
Number of CPUs: 1
LLC sets: 2048
LLC ways: 16
Off-chip DRAM Size: 4096 MB Channels: 1 Width: 64-bit Data Rate: 6400 MT/s
CPU 0 runs ../IPC-traces//server_021.champsimtrace.xz
.xz
NUM_OF_IPS_IN_CRITICAL_IP_TRAINING: 64
NUM_OF_CRITICAL_IP_TRAINING_TABLE_WAYS: 2
NUM_OF_CRITICAL_IP_TRAINING_TABLE_SETS: 32
WOBBLY_CRITICAL_IP_CACHE_SETS: 32
WOBBLY_CRITICAL_IP_CACHE_WAYS: 4
BTB has LRU replacement policy
ITLB has LRU replacement policy
DTLB has LRU replacement policy
STLB has LRU replacement policy
CPU 0 L1I next line prefetcher
L1I has LRU replacement policy
L1D has LRU replacement policy
Bingo PHT WAYS: 16 and PHT_SIZE: 16384
Initialize SRRIP state for L2C
Initialize DRRIP state for LLC
Heartbeat CPU 0 instructions: 10000000 cycles: 3199508 heartbeat IPC: 3.12548 cumulative IPC: 3.12548 (Simulation time: 0 hr 3 min 37 sec) 
Heartbeat CPU 0 instructions: 20000000 cycles: 6388083 heartbeat IPC: 3.1362 cumulative IPC: 3.13083 (Simulation time: 0 hr 6 min 32 sec) 
Heartbeat CPU 0 instructions: 30000000 cycles: 9611726 heartbeat IPC: 3.10208 cumulative IPC: 3.12119 (Simulation time: 0 hr 9 min 8 sec) 
Heartbeat CPU 0 instructions: 40000000 cycles: 12788631 heartbeat IPC: 3.14772 cumulative IPC: 3.12778 (Simulation time: 0 hr 11 min 26 sec) 
Heartbeat CPU 0 instructions: 50000000 cycles: 15997722 heartbeat IPC: 3.11615 cumulative IPC: 3.12544 (Simulation time: 0 hr 13 min 30 sec) 

Warmup complete CPU 0 instructions: 50000004 cycles: 15997723 (Simulation time: 0 hr 13 min 30 sec) 

% increase in all ip prefetch 444.926
% increase in all ip prefetch 3.44328
Heartbeat CPU 0 instructions: 60000001 cycles: 34298580 heartbeat IPC: 0.546423 cumulative IPC: 0.546422 (Simulation time: 0 hr 16 min 47 sec) 
Heartbeat CPU 0 instructions: 70000000 cycles: 52222971 heartbeat IPC: 0.557899 cumulative IPC: 0.552101 (Simulation time: 0 hr 20 min 3 sec) 
Heartbeat CPU 0 instructions: 80000003 cycles: 70052593 heartbeat IPC: 0.560865 cumulative IPC: 0.554992 (Simulation time: 0 hr 23 min 14 sec) 
Heartbeat CPU 0 instructions: 90000000 cycles: 88021400 heartbeat IPC: 0.55652 cumulative IPC: 0.555373 (Simulation time: 0 hr 28 min 2 sec) 
Heartbeat CPU 0 instructions: 100000002 cycles: 105915660 heartbeat IPC: 0.558839 cumulative IPC: 0.556063 (Simulation time: 0 hr 32 min 33 sec) 
Finished CPU 0 instructions: 50000002 cycles: 89917938 cumulative IPC: 0.556063 (Simulation time: 0 hr 32 min 33 sec) 

ChampSim completed all CPUs

Region of Interest Statistics

CPU 0 cumulative IPC: 0.556063 instructions: 50000002 cycles: 89917938

CPU 0 Average Load ROB stall cycles: 2.7921e+07
CPU 0 Fraction of times ROB stalled by Loads: 45.6494
CPU 0 Percentage of Load stall cycles in Total stall cycles: 2.82289e+08
Issued all: 49812084
Issued LT all: 44512061
rob_not_full_when_issued_lt_all: 16866920
Issued LT one: 38702692
rob_not_full_when_issued_lt_one: 12812328
 Total stall cycles: 72398977
 Total load stall cycles: 204374056711996
CPU 0 NUM of IPS identified critical: 0
CPU 0 Num of Load IPs stalling ROB: 4830
Threshold modification factor: -1
Max PIST entries: 64
Min PIST entries: 0
Avg PIST entries: 32
Trouble in retire width: 0.799946
MaC = Marked as critical.
lt_50_percent_before_Mac: 0
gt_90_percent_before_Mac: 0
gt_75_percent_before_Mac: 0
gt_50_percent_before_Mac: 0
stall_proportion_bin_same_before_after: 0
stall_proportion_bin_lower_before_after: 0
stall_proportion_bin_upper_before_after: 0
average_stall_proportion_before: -nan
average_stall_proportion_after: -nan
Critical IP stalls, total frequency: 0
Non-critical IP stalls, total frequency: 3341411
Total Freq all stalling IPs: 3341411
stat_90_percent_critical_ip_stalls_freq: 3007465
stat_90_percent_non_critical_ip_stalls_freq: 333946
Critical_IP_ROB_Stalls_Bucket_0: 0
Non-critical_IP_ROB_Stalls_Bucket_0: 570528
Critical_IP_ROB_Stalls_Bucket_1: 0
Non-critical_IP_ROB_Stalls_Bucket_1: 655484
Critical_IP_ROB_Stalls_Bucket_2: 0
Non-critical_IP_ROB_Stalls_Bucket_2: 427569
Critical_IP_ROB_Stalls_Bucket_3: 0
Non-critical_IP_ROB_Stalls_Bucket_3: 247729
Critical_IP_ROB_Stalls_Bucket_4: 0
Non-critical_IP_ROB_Stalls_Bucket_4: 165325
Critical_IP_ROB_Stalls_Bucket_5: 0
Non-critical_IP_ROB_Stalls_Bucket_5: 143774
Critical_IP_ROB_Stalls_Bucket_6: 0
Non-critical_IP_ROB_Stalls_Bucket_6: 1131002
0 => IPs accounting for >50 percent of stalls, 1 => 55, 2 => 60, 3 => 65 and so on till 90.
percent50: 50.0244 num IPs:  13
percent55: 55.0025 num IPs: 32
percent60: 60.043 num IPs: 65
percent65: 65.0311 num IPs: 114
percent70: 70.0147 num IPs: 183
percent75: 75.0506 num IPs: 253
percent80: 80.0412 num IPs: 324
percent85: 85.0474 num IPs: 402
percent90: 90.0057 num IPs: 500
Critical_ROB_Stalls_Percent_0_Bucket_0: 52528
Non-critical_ROB_Stalls_Percent_0_Bucket_0: 518000
Critical_ROB_Stalls_Percent_0_Bucket_1: 111621
Non-critical_ROB_Stalls_Percent_0_Bucket_1: 543863
Critical_ROB_Stalls_Percent_0_Bucket_2: 125003
Non-critical_ROB_Stalls_Percent_0_Bucket_2: 302566
Critical_ROB_Stalls_Percent_0_Bucket_3: 135598
Non-critical_ROB_Stalls_Percent_0_Bucket_3: 112131
Critical_ROB_Stalls_Percent_0_Bucket_4: 113950
Non-critical_ROB_Stalls_Percent_0_Bucket_4: 51375
Critical_ROB_Stalls_Percent_0_Bucket_5: 105949
Non-critical_ROB_Stalls_Percent_0_Bucket_5: 37825
Critical_ROB_Stalls_Percent_0_Bucket_6: 1026873
Non-critical_ROB_Stalls_Percent_0_Bucket_6: 104129
Critical_ROB_Stalls_Percent_1_Bucket_0: 134302
Non-critical_ROB_Stalls_Percent_1_Bucket_0: 436226
Critical_ROB_Stalls_Percent_1_Bucket_1: 160811
Non-critical_ROB_Stalls_Percent_1_Bucket_1: 494673
Critical_ROB_Stalls_Percent_1_Bucket_2: 142087
Non-critical_ROB_Stalls_Percent_1_Bucket_2: 285482
Critical_ROB_Stalls_Percent_1_Bucket_3: 141671
Non-critical_ROB_Stalls_Percent_1_Bucket_3: 106058
Critical_ROB_Stalls_Percent_1_Bucket_4: 118928
Non-critical_ROB_Stalls_Percent_1_Bucket_4: 46397
Critical_ROB_Stalls_Percent_1_Bucket_5: 109060
Non-critical_ROB_Stalls_Percent_1_Bucket_5: 34714
Critical_ROB_Stalls_Percent_1_Bucket_6: 1031002
Non-critical_ROB_Stalls_Percent_1_Bucket_6: 100000
Critical_ROB_Stalls_Percent_2_Bucket_0: 180748
Non-critical_ROB_Stalls_Percent_2_Bucket_0: 389780
Critical_ROB_Stalls_Percent_2_Bucket_1: 203009
Non-critical_ROB_Stalls_Percent_2_Bucket_1: 452475
Critical_ROB_Stalls_Percent_2_Bucket_2: 180253
Non-critical_ROB_Stalls_Percent_2_Bucket_2: 247316
Critical_ROB_Stalls_Percent_2_Bucket_3: 149022
Non-critical_ROB_Stalls_Percent_2_Bucket_3: 98707
Critical_ROB_Stalls_Percent_2_Bucket_4: 123463
Non-critical_ROB_Stalls_Percent_2_Bucket_4: 41862
Critical_ROB_Stalls_Percent_2_Bucket_5: 116712
Non-critical_ROB_Stalls_Percent_2_Bucket_5: 27062
Critical_ROB_Stalls_Percent_2_Bucket_6: 1053075
Non-critical_ROB_Stalls_Percent_2_Bucket_6: 77927
Critical_ROB_Stalls_Percent_3_Bucket_0: 230069
Non-critical_ROB_Stalls_Percent_3_Bucket_0: 340459
Critical_ROB_Stalls_Percent_3_Bucket_1: 249139
Non-critical_ROB_Stalls_Percent_3_Bucket_1: 406345
Critical_ROB_Stalls_Percent_3_Bucket_2: 209734
Non-critical_ROB_Stalls_Percent_3_Bucket_2: 217835
Critical_ROB_Stalls_Percent_3_Bucket_3: 159658
Non-critical_ROB_Stalls_Percent_3_Bucket_3: 88071
Critical_ROB_Stalls_Percent_3_Bucket_4: 128918
Non-critical_ROB_Stalls_Percent_3_Bucket_4: 36407
Critical_ROB_Stalls_Percent_3_Bucket_5: 123193
Non-critical_ROB_Stalls_Percent_3_Bucket_5: 20581
Critical_ROB_Stalls_Percent_3_Bucket_6: 1072245
Non-critical_ROB_Stalls_Percent_3_Bucket_6: 58757
Critical_ROB_Stalls_Percent_4_Bucket_0: 259431
Non-critical_ROB_Stalls_Percent_4_Bucket_0: 311097
Critical_ROB_Stalls_Percent_4_Bucket_1: 310553
Non-critical_ROB_Stalls_Percent_4_Bucket_1: 344931
Critical_ROB_Stalls_Percent_4_Bucket_2: 244055
Non-critical_ROB_Stalls_Percent_4_Bucket_2: 183514
Critical_ROB_Stalls_Percent_4_Bucket_3: 177164
Non-critical_ROB_Stalls_Percent_4_Bucket_3: 70565
Critical_ROB_Stalls_Percent_4_Bucket_4: 142706
Non-critical_ROB_Stalls_Percent_4_Bucket_4: 22619
Critical_ROB_Stalls_Percent_4_Bucket_5: 127554
Non-critical_ROB_Stalls_Percent_4_Bucket_5: 16220
Critical_ROB_Stalls_Percent_4_Bucket_6: 1078020
Non-critical_ROB_Stalls_Percent_4_Bucket_6: 52982
Critical_ROB_Stalls_Percent_5_Bucket_0: 287005
Non-critical_ROB_Stalls_Percent_5_Bucket_0: 283523
Critical_ROB_Stalls_Percent_5_Bucket_1: 378926
Non-critical_ROB_Stalls_Percent_5_Bucket_1: 276558
Critical_ROB_Stalls_Percent_5_Bucket_2: 292185
Non-critical_ROB_Stalls_Percent_5_Bucket_2: 135384
Critical_ROB_Stalls_Percent_5_Bucket_3: 189009
Non-critical_ROB_Stalls_Percent_5_Bucket_3: 58720
Critical_ROB_Stalls_Percent_5_Bucket_4: 146197
Non-critical_ROB_Stalls_Percent_5_Bucket_4: 19128
Critical_ROB_Stalls_Percent_5_Bucket_5: 131077
Non-critical_ROB_Stalls_Percent_5_Bucket_5: 12697
Critical_ROB_Stalls_Percent_5_Bucket_6: 1083354
Non-critical_ROB_Stalls_Percent_5_Bucket_6: 47648
Critical_ROB_Stalls_Percent_6_Bucket_0: 332060
Non-critical_ROB_Stalls_Percent_6_Bucket_0: 238468
Critical_ROB_Stalls_Percent_6_Bucket_1: 442951
Non-critical_ROB_Stalls_Percent_6_Bucket_1: 212533
Critical_ROB_Stalls_Percent_6_Bucket_2: 319373
Non-critical_ROB_Stalls_Percent_6_Bucket_2: 108196
Critical_ROB_Stalls_Percent_6_Bucket_3: 204820
Non-critical_ROB_Stalls_Percent_6_Bucket_3: 42909
Critical_ROB_Stalls_Percent_6_Bucket_4: 150916
Non-critical_ROB_Stalls_Percent_6_Bucket_4: 14409
Critical_ROB_Stalls_Percent_6_Bucket_5: 132748
Non-critical_ROB_Stalls_Percent_6_Bucket_5: 11026
Critical_ROB_Stalls_Percent_6_Bucket_6: 1091643
Non-critical_ROB_Stalls_Percent_6_Bucket_6: 39359
Critical_ROB_Stalls_Percent_7_Bucket_0: 385911
Non-critical_ROB_Stalls_Percent_7_Bucket_0: 184617
Critical_ROB_Stalls_Percent_7_Bucket_1: 497357
Non-critical_ROB_Stalls_Percent_7_Bucket_1: 158127
Critical_ROB_Stalls_Percent_7_Bucket_2: 351681
Non-critical_ROB_Stalls_Percent_7_Bucket_2: 75888
Critical_ROB_Stalls_Percent_7_Bucket_3: 216394
Non-critical_ROB_Stalls_Percent_7_Bucket_3: 31335
Critical_ROB_Stalls_Percent_7_Bucket_4: 154268
Non-critical_ROB_Stalls_Percent_7_Bucket_4: 11057
Critical_ROB_Stalls_Percent_7_Bucket_5: 133630
Non-critical_ROB_Stalls_Percent_7_Bucket_5: 10144
Critical_ROB_Stalls_Percent_7_Bucket_6: 1102546
Non-critical_ROB_Stalls_Percent_7_Bucket_6: 28456
Critical_ROB_Stalls_Percent_8_Bucket_0: 458574
Non-critical_ROB_Stalls_Percent_8_Bucket_0: 111954
Critical_ROB_Stalls_Percent_8_Bucket_1: 548942
Non-critical_ROB_Stalls_Percent_8_Bucket_1: 106542
Critical_ROB_Stalls_Percent_8_Bucket_2: 375768
Non-critical_ROB_Stalls_Percent_8_Bucket_2: 51801
Critical_ROB_Stalls_Percent_8_Bucket_3: 222618
Non-critical_ROB_Stalls_Percent_8_Bucket_3: 25111
Critical_ROB_Stalls_Percent_8_Bucket_4: 156622
Non-critical_ROB_Stalls_Percent_8_Bucket_4: 8703
Critical_ROB_Stalls_Percent_8_Bucket_5: 136815
Non-critical_ROB_Stalls_Percent_8_Bucket_5: 6959
Critical_ROB_Stalls_Percent_8_Bucket_6: 1108126
Non-critical_ROB_Stalls_Percent_8_Bucket_6: 22876
Average ROB occupancy Load Stall Begin: 181.268
Average ROB occupancy Load Stall End: 189.174
Min ROB occupancy Load Stall Begin: 1
Max ROB occupancy Load Stall Begin: 352
Min ROB occupancy Load Stall End: 1
Max ROB occupancy Load Stall End: 352
Average ROB occupancy Critical Load Stall Begin: -nan
Average ROB occupancy Critical Load Stall End: -nan
Min ROB occupancy Critical Load Stall Begin: 400
Max ROB occupancy Critical Load Stall Begin: 0
Min ROB occupancy Critical Load Stall End: 400
Max ROB occupancy Critical Load Stall End: 0
 ROB Load Stall Begin Bucket Count 0: 787163
 ROB Load Stall End Bucket Count 0: 570528
 ROB Critical Load Stall Begin Bucket Count 0: 0
 ROB Critical Load Stall End Bucket Count 0: 0
 ROB Load Stall Begin Bucket Count 1: 567175
 ROB Load Stall End Bucket Count 1: 655484
 ROB Critical Load Stall Begin Bucket Count 1: 0
 ROB Critical Load Stall End Bucket Count 1: 0
 ROB Load Stall Begin Bucket Count 2: 367722
 ROB Load Stall End Bucket Count 2: 427569
 ROB Critical Load Stall Begin Bucket Count 2: 0
 ROB Critical Load Stall End Bucket Count 2: 0
 ROB Load Stall Begin Bucket Count 3: 216119
 ROB Load Stall End Bucket Count 3: 247729
 ROB Critical Load Stall Begin Bucket Count 3: 0
 ROB Critical Load Stall End Bucket Count 3: 0
 ROB Load Stall Begin Bucket Count 4: 153120
 ROB Load Stall End Bucket Count 4: 165325
 ROB Critical Load Stall Begin Bucket Count 4: 0
 ROB Critical Load Stall End Bucket Count 4: 0
 ROB Load Stall Begin Bucket Count 5: 145781
 ROB Load Stall End Bucket Count 5: 143774
 ROB Critical Load Stall Begin Bucket Count 5: 0
 ROB Critical Load Stall End Bucket Count 5: 0
 ROB Load Stall Begin Bucket Count 6: 1104331
 ROB Load Stall End Bucket Count 6: 1131002
 ROB Critical Load Stall Begin Bucket Count 6: 0
 ROB Critical Load Stall End Bucket Count 6: 0
PIST Tag Read Accesses: 2820134
PIST Read Accesses: 1410067
PIST Tag Write Accesses: 2820134
PIST Write Accesses: 1410067
Criticality detector called times: 1827085
Max global_stall_cycles_count: 3566621
Threshold Modified: 1 times, factor: -1
Sturdy critical IP cache stats: 
 Unused entries: 0
CIC Tag Read Accesses: 0
CIC Read Accesses: 0
CIC Tag Write Accesses: 0
CIC Write Accesses: 0
Wobbly critical IP cache stats: 
 Unused entries: 116
CIC Tag Read Accesses: 93413236
CIC Read Accesses: 0
CIC Tag Write Accesses: 156
CIC Write Accesses: 0
ITLB TOTAL     ACCESS:   10463231  HIT:    9958960  MISS:     504271  HIT %:    95.1805  MISS %:    4.81946   MPKI: 10.0854
ITLB LOAD TRANSLATION ACCESS:    8488635  HIT:    8479490  MISS:       9145  HIT %:    99.8923  MISS %:   0.107732   MPKI: 0.1829
ITLB TRANSLATION FROM L1D PREFETCHER ACCESS:    1974596  HIT:    1479470  MISS:     495126  HIT %:    74.9252  MISS %:    25.0748   MPKI: 9.90252
ITLB PREFETCH  REQUESTED:          0  ISSUED:          0  USEFUL:     434783  USELESS:      60343
ITLB USEFUL LOAD PREFETCHES:     434783 PREFETCH ISSUED TO LOWER LEVEL:          0  ACCURACY: inf
ITLB TIMELY PREFETCHES:     434783 LATE PREFETCHES: 156 DROPPED PREFETCHES: 0
ITLB PREFETCHES SAME FILL-ORIGIN LEVEL: 0 DIFFERENT FILL-ORIGIN LEVEL: 0
ITLB AVERAGE MISS LATENCY: 18905.1 cycles
ITLB RQ	ACCESS:   15031271	FORWARD:          0	MERGED:    4519266	TO_CACHE:   10512005

DTLB TOTAL     ACCESS:   10941827  HIT:   10537929  MISS:     403898  HIT %:    96.3087  MISS %:    3.69132   MPKI: 8.07796
DTLB LOAD TRANSLATION ACCESS:   10941827  HIT:   10537929  MISS:     403898  HIT %:    96.3087  MISS %:    3.69132   MPKI: 8.07796
DTLB PREFETCH  REQUESTED:          0  ISSUED:          0  USEFUL:          0  USELESS:          0
DTLB USEFUL LOAD PREFETCHES:          0 PREFETCH ISSUED TO LOWER LEVEL:          0  ACCURACY: -nan
DTLB TIMELY PREFETCHES:          0 LATE PREFETCHES: 0 DROPPED PREFETCHES: 0
DTLB PREFETCHES SAME FILL-ORIGIN LEVEL: 0 DIFFERENT FILL-ORIGIN LEVEL: 0
DTLB AVERAGE MISS LATENCY: 16.4273 cycles
DTLB RQ	ACCESS:   16246438	FORWARD:          0	MERGED:    5220484	TO_CACHE:   11025954

STLB TOTAL     ACCESS:     908169  HIT:     887828  MISS:      20341  HIT %:    97.7602  MISS %:    2.23978   MPKI: 0.40682
STLB LOAD TRANSLATION ACCESS:     412887  HIT:     392945  MISS:      19942  HIT %:    95.1701  MISS %:    4.82989   MPKI: 0.39884
STLB TRANSLATION FROM L1D PREFETCHER ACCESS:     495282  HIT:     494883  MISS:        399  HIT %:    99.9194  MISS %:  0.0805602   MPKI: 0.00798
STLB PREFETCH  REQUESTED:          0  ISSUED:          0  USEFUL:        182  USELESS:        206
STLB USEFUL LOAD PREFETCHES:        182 PREFETCH ISSUED TO LOWER LEVEL:          0  ACCURACY: inf
STLB TIMELY PREFETCHES:        182 LATE PREFETCHES: 0 DROPPED PREFETCHES: 0
STLB PREFETCHES SAME FILL-ORIGIN LEVEL: 0 DIFFERENT FILL-ORIGIN LEVEL: 0
STLB AVERAGE MISS LATENCY: 153.637 cycles
STLB RQ	ACCESS:     908169	FORWARD:          0	MERGED:          0	TO_CACHE:     908169

STLB Hit, L1D data hit: 0
STLB Hit, L2C data hit: 0
STLB Hit, LLC data hit: 0
STLB Hit, LLC data miss: 0
STLB STLB hints to L2: 0
L1D TOTAL     ACCESS:   14047247  HIT:   12232970  MISS:    1814277  HIT %:    87.0845  MISS %:    12.9155   MPKI: 36.2855
L1D LOAD      ACCESS:    7447240  HIT:    6626892  MISS:     820348  HIT %:    88.9845  MISS %:    11.0155   MPKI: 16.407
L1D RFO       ACCESS:    6600007  HIT:    5606078  MISS:     993929  HIT %:    84.9405  MISS %:    15.0595   MPKI: 19.8786
L1D PREFETCH  REQUESTED:          0  ISSUED:          0  USEFUL:          0  USELESS:          0
L1D USEFUL LOAD PREFETCHES:          0 PREFETCH ISSUED TO LOWER LEVEL:          0  ACCURACY: -nan
L1D TIMELY PREFETCHES:          0 LATE PREFETCHES: 0 DROPPED PREFETCHES: 0
L1D PREFETCHES SAME FILL-ORIGIN LEVEL: 0 DIFFERENT FILL-ORIGIN LEVEL: 0
L1D AVERAGE MISS LATENCY: 136.99 cycles
L1D RQ	ACCESS:   11130918	FORWARD:          0	MERGED:    3524911	TO_CACHE:    7475360
L1D WQ	ACCESS:    8864293	FORWARD:     130647	MERGED:      93215	TO_CACHE:    8771078

L1D UNIQUE REGIONS ACCESSED: 0
L1D REGIONS CONFLICTS: 0
L1D Cross Page Prefetch Requests: 0
L1D Same Page Prefetch Requests: 0
L1D ROI Sum of L1D PQ occupancy: 0
L1D PREFETCHES PUSHED FROM L2C: 0
L1I TOTAL     ACCESS:   14956888  HIT:   11760704  MISS:    3196184  HIT %:    78.6307  MISS %:    21.3693   MPKI: 63.9237
L1I LOAD      ACCESS:    9911322  HIT:    9894064  MISS:      17258  HIT %:    99.8259  MISS %:   0.174124   MPKI: 0.34516
L1I PREFETCH  ACCESS:    5045566  HIT:    1866640  MISS:    3178926  HIT %:    36.9957  MISS %:    63.0043   MPKI: 63.5785
L1I PREFETCH  REQUESTED:    5309507  ISSUED:    5302332  USEFUL:    2636174  USELESS:     542767
L1I USEFUL LOAD PREFETCHES:    2636174 PREFETCH ISSUED TO LOWER LEVEL:    3234382  ACCURACY: 81.5047
L1I TIMELY PREFETCHES:    2636174 LATE PREFETCHES: 6034 DROPPED PREFETCHES: 0
L1I PREFETCHES SAME FILL-ORIGIN LEVEL: 3234382 DIFFERENT FILL-ORIGIN LEVEL: 0
L1I AVERAGE MISS LATENCY: 120991 cycles
L1I RQ	ACCESS:   14181859	FORWARD:          0	MERGED:    4267134	TO_CACHE:    9914725
L1I PQ	ACCESS:    5302332	FORWARD:          0	MERGED:     185786	TO_CACHE:    5116546

BTB TOTAL     ACCESS:    5300074  HIT:    5041527  MISS:     258547  HIT %:    95.1218  MISS %:    4.87818   MPKI: 5.17094
BTB BRANCH_DIRECT_JUMP	ACCESS:     445212  HIT:     443383  MISS:       1829
BTB BRANCH_INDIRECT	ACCESS:      50481  HIT:      50386  MISS:         95
BTB BRANCH_CONDITIONAL	ACCESS:    2966951  HIT:    2961198  MISS:       5753
BTB BRANCH_DIRECT_CALL	ACCESS:     758223  HIT:     754416  MISS:       3807
BTB BRANCH_INDIRECT_CALL	ACCESS:     160492  HIT:     130806  MISS:      29686
BTB BRANCH_RETURN	ACCESS:     918715  HIT:     701338  MISS:     217377
BTB BRANCH_OTHER ACCESS:          0  HIT:          0  MISS:          0

L2C TOTAL     ACCESS:    6898494  HIT:    5005068  MISS:    1893426  HIT %:    72.5531  MISS %:    27.4469   MPKI: 37.8685
L2C LOAD      ACCESS:     831562  HIT:     669132  MISS:     162430  HIT %:    80.4669  MISS %:    19.5331   MPKI: 3.2486
L2C DATA LOAD MPKI: 3.16658
L2C INSTRUCTION LOAD MPKI: 0.08202
L2C RFO       ACCESS:     993927  HIT:      65302  MISS:     928625  HIT %:     6.5701  MISS %:    93.4299   MPKI: 18.5725
L2C PREFETCH  ACCESS:    3883772  HIT:    3153303  MISS:     730469  HIT %:    81.1918  MISS %:    18.8082   MPKI: 14.6094
L2C DATA PREFETCH MPKI: 11.1467
L2C INSTRUCTION PREFETCH MPKI: 3.46264
L2C WRITEBACK ACCESS:    1167347  HIT:    1104823  MISS:      62524  HIT %:    94.6439  MISS %:    5.35608   MPKI: 1.25048
L2C LOAD TRANSLATION ACCESS:      21314  HIT:      12390  MISS:       8924  HIT %:    58.1308  MISS %:    41.8692   MPKI: 0.17848
L2C TRANSLATION FROM L1D PREFETCHER ACCESS:        572  HIT:        118  MISS:        454  HIT %:    20.6294  MISS %:    79.3706   MPKI: 0.00908
L2C PREFETCH  REQUESTED:     733070  ISSUED:     733070  USEFUL:     497767  USELESS:     233136
L2C USEFUL LOAD PREFETCHES:     497767 PREFETCH ISSUED TO LOWER LEVEL:     740526  ACCURACY: 67.218
L2C TIMELY PREFETCHES:     497767 LATE PREFETCHES: 10057 DROPPED PREFETCHES: 0
L2C PREFETCHES SAME FILL-ORIGIN LEVEL: 567394 DIFFERENT FILL-ORIGIN LEVEL: 0
L2C AVERAGE MISS LATENCY: 160.489 cycles
L2C RQ	ACCESS:    1847387	FORWARD:          0	MERGED:          0	TO_CACHE:    1847375
L2C WQ	ACCESS:    1167348	FORWARD:         12	MERGED:          0	TO_CACHE:    1167348
L2C PQ	ACCESS:    3918033	FORWARD:          0	MERGED:          8	TO_CACHE:    3918025

L2C Instructions Evicting Data 160185
L2C Translations Evicting Data 8387
L2C Data Evicting Data 1481181
L2C Instructions Evicting Instructions 16124
L2C Translations Evicting Instructions 964
L2C Data Evicting Instructions 154922
L2C Instructions Evicting Translations 924
L2C Translations Evicting Translations 27
L2C Data Evicting Translations 8188
L2C Dense regions hint from L2: 0
PSCL5 TOTAL     ACCESS:      20341  HIT:      20341  MISS:          0  HIT %:        100  MISS %:          0   MPKI: 0
PSCL5 LOAD TRANSLATION ACCESS:      19942  HIT:      19942  MISS:          0  HIT %:        100  MISS %:          0   MPKI: 0
PSCL5 TRANSLATION FROM L1D PREFETCHER ACCESS:        399  HIT:        399  MISS:          0  HIT %:        100  MISS %:          0   MPKI: 0
PSCL5 PREFETCH  REQUESTED:          0  ISSUED:          0  USEFUL:          0  USELESS:          0
PSCL5 USEFUL LOAD PREFETCHES:          0 PREFETCH ISSUED TO LOWER LEVEL:          0  ACCURACY: -nan
PSCL5 TIMELY PREFETCHES:          0 LATE PREFETCHES: 0 DROPPED PREFETCHES: 0
PSCL5 PREFETCHES SAME FILL-ORIGIN LEVEL: 0 DIFFERENT FILL-ORIGIN LEVEL: 0

PSCL4 TOTAL     ACCESS:      19437  HIT:      19389  MISS:         48  HIT %:     99.753  MISS %:   0.246952   MPKI: 0.00096
PSCL4 LOAD TRANSLATION ACCESS:      19059  HIT:      19011  MISS:         48  HIT %:    99.7482  MISS %:    0.25185   MPKI: 0.00096
PSCL4 TRANSLATION FROM L1D PREFETCHER ACCESS:        378  HIT:        378  MISS:          0  HIT %:        100  MISS %:          0   MPKI: 0
PSCL4 PREFETCH  REQUESTED:          0  ISSUED:          0  USEFUL:          0  USELESS:          0
PSCL4 USEFUL LOAD PREFETCHES:          0 PREFETCH ISSUED TO LOWER LEVEL:          0  ACCURACY: -nan
PSCL4 TIMELY PREFETCHES:          0 LATE PREFETCHES: 0 DROPPED PREFETCHES: 0
PSCL4 PREFETCHES SAME FILL-ORIGIN LEVEL: 0 DIFFERENT FILL-ORIGIN LEVEL: 0

PSCL3 TOTAL     ACCESS:      19857  HIT:      19809  MISS:         48  HIT %:    99.7583  MISS %:   0.241728   MPKI: 0.00096
PSCL3 LOAD TRANSLATION ACCESS:      19479  HIT:      19431  MISS:         48  HIT %:    99.7536  MISS %:   0.246419   MPKI: 0.00096
PSCL3 TRANSLATION FROM L1D PREFETCHER ACCESS:        378  HIT:        378  MISS:          0  HIT %:        100  MISS %:          0   MPKI: 0
PSCL3 PREFETCH  REQUESTED:          0  ISSUED:          0  USEFUL:          0  USELESS:          0
PSCL3 USEFUL LOAD PREFETCHES:          0 PREFETCH ISSUED TO LOWER LEVEL:          0  ACCURACY: -nan
PSCL3 TIMELY PREFETCHES:          0 LATE PREFETCHES: 0 DROPPED PREFETCHES: 0
PSCL3 PREFETCHES SAME FILL-ORIGIN LEVEL: 0 DIFFERENT FILL-ORIGIN LEVEL: 0

PSCL2 TOTAL     ACCESS:      20341  HIT:      18868  MISS:       1473  HIT %:    92.7585  MISS %:    7.24153   MPKI: 0.02946
PSCL2 LOAD TRANSLATION ACCESS:      20089  HIT:      18616  MISS:       1473  HIT %:    92.6676  MISS %:    7.33237   MPKI: 0.02946
PSCL2 TRANSLATION FROM L1D PREFETCHER ACCESS:        252  HIT:        252  MISS:          0  HIT %:        100  MISS %:          0   MPKI: 0
PSCL2 PREFETCH  REQUESTED:          0  ISSUED:          0  USEFUL:          0  USELESS:          0
PSCL2 USEFUL LOAD PREFETCHES:          0 PREFETCH ISSUED TO LOWER LEVEL:          0  ACCURACY: -nan
PSCL2 TIMELY PREFETCHES:          0 LATE PREFETCHES: 0 DROPPED PREFETCHES: 0
PSCL2 PREFETCHES SAME FILL-ORIGIN LEVEL: 0 DIFFERENT FILL-ORIGIN LEVEL: 0

LLC TOTAL     ACCESS:    2930232  HIT:    1321972  MISS:    1608260  HIT %:    45.1149  MISS %:    54.8851   MPKI: 32.1652
LLC LOAD      ACCESS:     152429  HIT:     120127  MISS:      32302  HIT %:    78.8085  MISS %:    21.1915   MPKI: 0.64604
LLC RFO       ACCESS:     928568  HIT:     224090  MISS:     704478  HIT %:    24.1329  MISS %:    75.8671   MPKI: 14.0896
LLC PREFETCH  ACCESS:     740526  HIT:     415082  MISS:     325444  HIT %:    56.0523  MISS %:    43.9477   MPKI: 6.50888
LLC WRITEBACK ACCESS:    1099331  HIT:     559061  MISS:     540270  HIT %:    50.8547  MISS %:    49.1453   MPKI: 10.8054
LLC LOAD TRANSLATION ACCESS:       8924  HIT:       3428  MISS:       5496  HIT %:    38.4133  MISS %:    61.5867   MPKI: 0.10992
LLC TRANSLATION FROM L1D PREFETCHER ACCESS:        454  HIT:        184  MISS:        270  HIT %:    40.5286  MISS %:    59.4714   MPKI: 0.0054
LLC PREFETCH  REQUESTED:          0  ISSUED:          0  USEFUL:       2819  USELESS:     328319
LLC USEFUL LOAD PREFETCHES:       2819 PREFETCH ISSUED TO LOWER LEVEL:     325444  ACCURACY: 0.866201
LLC TIMELY PREFETCHES:       2819 LATE PREFETCHES: 0 DROPPED PREFETCHES: 0
LLC PREFETCHES SAME FILL-ORIGIN LEVEL: 0 DIFFERENT FILL-ORIGIN LEVEL: 0
LLC AVERAGE MISS LATENCY: 153.378 cycles
LLC RQ	ACCESS:    1090376	FORWARD:          0	MERGED:          0	TO_CACHE:    1090375
LLC WQ	ACCESS:    1099331	FORWARD:          1	MERGED:          0	TO_CACHE:    1099331
LLC PQ	ACCESS:     740526	FORWARD:          0	MERGED:          0	TO_CACHE:     740526

LLC Dense regions hint to LLC: 0

RAW hits: 1334694
Loads Generated: 12465612
Loads sent to L1D: 11130918
Stores Generated: 8864282
Stores sent to L1D: 8864293
Major fault: 0 Minor fault: 22424
Allocated PAGES: 22424
I-Shadow cache 408 bytes
Touched + WorthPF tables 6144 bytes 
MMA filter 174 bytes 
FNL filter 272 bytes 
TOTAL PREFETCHER STORAGE SIZE: 25174 bytes
CPU 0 L1I next line prefetcher final stats
[Bingo] PHT Access: 110524
[Bingo] PHT Hit PC+Addr: 63439
[Bingo] PHT Hit PC+Offs: 31988
[Bingo] PHT Miss: 15097
[Bingo] Prefetch PC+Addr: 0
[Bingo] Prefetch PC+Offs: 0
[Bingo] Useful PC+Addr: 0
[Bingo] Useful PC+Offs: 0
[Bingo] Useless PC+Addr: 0
[Bingo] Useless PC+Offs: 0
[Bingo] L1 Prefetch per Region: 0
[Bingo] L2 Prefetch per Region: 9.10386
[Bingo] L3 Prefetch per Region: 0
[Bingo] No Prefetch per Region: 22.8961
[Bingo] Number of Voters Mean: 11.7654
[Bingo] Number of Voters SD: 13.865
PHT read accesses: 860968
PHT write accesses: 71720
AT read accesses: 747789
AT write accesses: 762860
FT read accesses: 275904
FT write accesses: 110524
PS read accesses: 209541
PS write accesses: 95427
PHT tag read accesses: 2507354
PHT tag write accesses: 135159
AT tag read accesses: 46388898
AT tag write accesses: 819511
FT tag read accesses: 37427275
FT tag write accesses: 296030
PS tag read accesses: 16619653
PS tag write accesses: 302221

DRAM Statistics
 CHANNEL 0
 RQ ROW_BUFFER_HIT:     585193  ROW_BUFFER_MISS:     482759
 DBUS_CONGESTED:        579
 WQ ROW_BUFFER_HIT:     148569  ROW_BUFFER_MISS:     584453  FULL:      13762

 AVG_CONGESTED_CYCLE: 3
 All warmup complete: 2
Channel 0 Bank busy for read cycles: 0
Channel 0 Bank busy for write cycles: 0
Channel 0
Rank 0
0banks busy for read cycles: 37243388
0banks busy for write cycles: 57811
1banks busy for read cycles: 9024505
1banks busy for write cycles: 7040327
2banks busy for read cycles: 3878390
2banks busy for write cycles: 3269010
3banks busy for read cycles: 1709024
3banks busy for write cycles: 1965017
4banks busy for read cycles: 1698768
4banks busy for write cycles: 1436848
5banks busy for read cycles: 648069
5banks busy for write cycles: 1218290
6banks busy for read cycles: 821958
6banks busy for write cycles: 1192142
7banks busy for read cycles: 1612359
7banks busy for write cycles: 1694518
8banks busy for read cycles: 6879555
8banks busy for write cycles: 8527960

CPU 0 Branch Prediction Accuracy: 99.8303% MPKI: 0.27836 Average ROB Occupancy at Mispredict: 110.415
Branch types
NOT_BRANCH: 41798375 83.5967%
BRANCH_DIRECT_JUMP: 445212 0.890424%
BRANCH_INDIRECT: 50481 0.100962%
BRANCH_CONDITIONAL: 5868223 11.7364%
BRANCH_DIRECT_CALL: 758223 1.51645%
BRANCH_INDIRECT_CALL: 160492 0.320984%
BRANCH_RETURN: 918715 1.83743%
BRANCH_OTHER: 0 0%

DRAM PAGES: 1048576
Allocated PAGES: 22424
