
*** ChampSim Multicore Out-of-Order Simulator ***

Warmup Instructions: 50000000
Simulation Instructions: 50000000
Number of CPUs: 1
LLC sets: 2048
LLC ways: 16
Off-chip DRAM Size: 4096 MB Channels: 1 Width: 64-bit Data Rate: 6400 MT/s
CPU 0 runs ../IPC-traces//server_033.champsimtrace.xz
.xz
BTB has LRU replacement policy
ITLB has LRU replacement policy
DTLB has LRU replacement policy
STLB has LRU replacement policy
CPU 0 L1I next line prefetcher
L1I has LRU replacement policy
IP Table Entries: 64
L1D has LRU replacement policy
Initialize SRRIP state for L2C
Initialize DRRIP state for LLC
Heartbeat CPU 0 instructions: 10000001 cycles: 2763270 heartbeat IPC: 3.6189 cumulative IPC: 3.6189 (Simulation time: 0 hr 2 min 48 sec) 
Heartbeat CPU 0 instructions: 20000002 cycles: 5521428 heartbeat IPC: 3.62561 cumulative IPC: 3.62225 (Simulation time: 0 hr 5 min 35 sec) 
Heartbeat CPU 0 instructions: 30000003 cycles: 8281857 heartbeat IPC: 3.62263 cumulative IPC: 3.62238 (Simulation time: 0 hr 8 min 18 sec) 
Heartbeat CPU 0 instructions: 40000000 cycles: 11046168 heartbeat IPC: 3.61754 cumulative IPC: 3.62117 (Simulation time: 0 hr 11 min 2 sec) 
Heartbeat CPU 0 instructions: 50000000 cycles: 13811365 heartbeat IPC: 3.61638 cumulative IPC: 3.62021 (Simulation time: 0 hr 13 min 41 sec) 

Warmup complete CPU 0 instructions: 50000004 cycles: 13811366 (Simulation time: 0 hr 13 min 41 sec) 

Heartbeat CPU 0 instructions: 60000003 cycles: 26690110 heartbeat IPC: 0.776473 cumulative IPC: 0.776473 (Simulation time: 0 hr 16 min 48 sec) 
Heartbeat CPU 0 instructions: 70000000 cycles: 39501221 heartbeat IPC: 0.780572 cumulative IPC: 0.778517 (Simulation time: 0 hr 19 min 52 sec) 
Heartbeat CPU 0 instructions: 80000000 cycles: 53052431 heartbeat IPC: 0.737942 cumulative IPC: 0.764505 (Simulation time: 0 hr 23 min 1 sec) 
Heartbeat CPU 0 instructions: 90000003 cycles: 66089366 heartbeat IPC: 0.767052 cumulative IPC: 0.76514 (Simulation time: 0 hr 26 min 0 sec) 
Heartbeat CPU 0 instructions: 100000000 cycles: 78952832 heartbeat IPC: 0.777395 cumulative IPC: 0.76756 (Simulation time: 0 hr 28 min 51 sec) 
Finished CPU 0 instructions: 50000000 cycles: 65141479 cumulative IPC: 0.76756 (Simulation time: 0 hr 28 min 51 sec) 

ChampSim completed all CPUs

Region of Interest Statistics

CPU 0 cumulative IPC: 0.76756 instructions: 50000000 cycles: 65141479

CPU 0 Average Load ROB stall cycles: 1.68754e+07
CPU 0 Fraction of times ROB stalled by Loads: 36.4541
CPU 0 Percentage of Load stall cycles in Total stall cycles: 2.42545e+08
Issued all: 26571309
Issued LT all: 20795815
rob_not_full_when_issued_lt_all: 20225374
Issued LT one: 15700260
rob_not_full_when_issued_lt_one: 15185694
HPCA_2009 critical_dynamic_instances_0: 70529
HPCA_2009 unique_critical_ips_0: 5607
multiple_destinations_0: 0
load_to_same_dest_0: 0
low_issue_rate_0: 15430670
total_issue_rate_checked_count_0: 17016907
 Total stall cycles: 53184291
 Total load stall cycles: 128995973923975
Unique Load IPs: 8699
CPU 0 NUM of IPS identified critical: 0
CPU 0 Num of Load IPs stalling ROB: 0
Threshold modification factor: 0
Trouble in retire width: -nan
MaC = Marked as critical.
lt_50_percent_before_Mac: 0
gt_90_percent_before_Mac: 0
gt_75_percent_before_Mac: 0
gt_50_percent_before_Mac: 0
stall_proportion_bin_same_before_after: 0
stall_proportion_bin_lower_before_after: 0
stall_proportion_bin_upper_before_after: 0
average_stall_proportion_before: -nan
average_stall_proportion_after: -nan
Critical IP stalls, total frequency: 0
Non-critical IP stalls, total frequency: 0
Total Freq all stalling IPs: 0
Critical_IP_Detector_Accuracy_70: 0.000178348
Critical_IP_Detector_Accuracy_80: 0.000178348
Critical_IP_Detector_Accuracy_90: 0.000178348
Critical_IP_Detector_Coverage_70: 1
Critical_IP_Detector_Coverage_80: 1
Critical_IP_Detector_Coverage_90: 1
stat_90_percent_critical_ip_stalls_freq: 33933
stat_90_percent_non_critical_ip_stalls_freq: 18446744073709517683
AVERAGE_ROB_Occupancy_90_Percent_Critical_IP_Stalls: 17.8824
AVERAGE_ROB_Occupancy_90_Percent_Non_Critical_IP_Stalls: 8.752e-12
Critical_IP_ROB_Stalls_Bucket_0: 0
Non-critical_IP_ROB_Stalls_Bucket_0: 1518900
Critical_IP_ROB_Stalls_Bucket_1: 0
Non-critical_IP_ROB_Stalls_Bucket_1: 845650
Critical_IP_ROB_Stalls_Bucket_2: 0
Non-critical_IP_ROB_Stalls_Bucket_2: 305090
Critical_IP_ROB_Stalls_Bucket_3: 0
Non-critical_IP_ROB_Stalls_Bucket_3: 81842
Critical_IP_ROB_Stalls_Bucket_4: 0
Non-critical_IP_ROB_Stalls_Bucket_4: 13613
Critical_IP_ROB_Stalls_Bucket_5: 0
Non-critical_IP_ROB_Stalls_Bucket_5: 2666
Critical_IP_ROB_Stalls_Bucket_6: 0
Non-critical_IP_ROB_Stalls_Bucket_6: 18798
0 => IPs accounting for >50 percent of stalls, 1 => 55, 2 => 60, 3 => 65 and so on till 90.
percent50: inf num IPs:  1
percent55: inf num IPs: 1
percent60: inf num IPs: 1
percent65: inf num IPs: 1
percent70: inf num IPs: 1
percent75: inf num IPs: 1
percent80: inf num IPs: 1
percent85: inf num IPs: 1
percent90: inf num IPs: 1
Critical_ROB_Stalls_Percent_0_Bucket_0: 33473
Non-critical_ROB_Stalls_Percent_0_Bucket_0: 1485427
Critical_ROB_Stalls_Percent_0_Bucket_1: 456
Non-critical_ROB_Stalls_Percent_0_Bucket_1: 845194
Critical_ROB_Stalls_Percent_0_Bucket_2: 3
Non-critical_ROB_Stalls_Percent_0_Bucket_2: 305087
Critical_ROB_Stalls_Percent_0_Bucket_3: 1
Non-critical_ROB_Stalls_Percent_0_Bucket_3: 81841
Critical_ROB_Stalls_Percent_0_Bucket_4: 0
Non-critical_ROB_Stalls_Percent_0_Bucket_4: 13613
Critical_ROB_Stalls_Percent_0_Bucket_5: 0
Non-critical_ROB_Stalls_Percent_0_Bucket_5: 2666
Critical_ROB_Stalls_Percent_0_Bucket_6: 0
Non-critical_ROB_Stalls_Percent_0_Bucket_6: 18798
Critical_ROB_Stalls_Percent_1_Bucket_0: 33473
Non-critical_ROB_Stalls_Percent_1_Bucket_0: 1485427
Critical_ROB_Stalls_Percent_1_Bucket_1: 456
Non-critical_ROB_Stalls_Percent_1_Bucket_1: 845194
Critical_ROB_Stalls_Percent_1_Bucket_2: 3
Non-critical_ROB_Stalls_Percent_1_Bucket_2: 305087
Critical_ROB_Stalls_Percent_1_Bucket_3: 1
Non-critical_ROB_Stalls_Percent_1_Bucket_3: 81841
Critical_ROB_Stalls_Percent_1_Bucket_4: 0
Non-critical_ROB_Stalls_Percent_1_Bucket_4: 13613
Critical_ROB_Stalls_Percent_1_Bucket_5: 0
Non-critical_ROB_Stalls_Percent_1_Bucket_5: 2666
Critical_ROB_Stalls_Percent_1_Bucket_6: 0
Non-critical_ROB_Stalls_Percent_1_Bucket_6: 18798
Critical_ROB_Stalls_Percent_2_Bucket_0: 33473
Non-critical_ROB_Stalls_Percent_2_Bucket_0: 1485427
Critical_ROB_Stalls_Percent_2_Bucket_1: 456
Non-critical_ROB_Stalls_Percent_2_Bucket_1: 845194
Critical_ROB_Stalls_Percent_2_Bucket_2: 3
Non-critical_ROB_Stalls_Percent_2_Bucket_2: 305087
Critical_ROB_Stalls_Percent_2_Bucket_3: 1
Non-critical_ROB_Stalls_Percent_2_Bucket_3: 81841
Critical_ROB_Stalls_Percent_2_Bucket_4: 0
Non-critical_ROB_Stalls_Percent_2_Bucket_4: 13613
Critical_ROB_Stalls_Percent_2_Bucket_5: 0
Non-critical_ROB_Stalls_Percent_2_Bucket_5: 2666
Critical_ROB_Stalls_Percent_2_Bucket_6: 0
Non-critical_ROB_Stalls_Percent_2_Bucket_6: 18798
Critical_ROB_Stalls_Percent_3_Bucket_0: 33473
Non-critical_ROB_Stalls_Percent_3_Bucket_0: 1485427
Critical_ROB_Stalls_Percent_3_Bucket_1: 456
Non-critical_ROB_Stalls_Percent_3_Bucket_1: 845194
Critical_ROB_Stalls_Percent_3_Bucket_2: 3
Non-critical_ROB_Stalls_Percent_3_Bucket_2: 305087
Critical_ROB_Stalls_Percent_3_Bucket_3: 1
Non-critical_ROB_Stalls_Percent_3_Bucket_3: 81841
Critical_ROB_Stalls_Percent_3_Bucket_4: 0
Non-critical_ROB_Stalls_Percent_3_Bucket_4: 13613
Critical_ROB_Stalls_Percent_3_Bucket_5: 0
Non-critical_ROB_Stalls_Percent_3_Bucket_5: 2666
Critical_ROB_Stalls_Percent_3_Bucket_6: 0
Non-critical_ROB_Stalls_Percent_3_Bucket_6: 18798
Critical_ROB_Stalls_Percent_4_Bucket_0: 33473
Non-critical_ROB_Stalls_Percent_4_Bucket_0: 1485427
Critical_ROB_Stalls_Percent_4_Bucket_1: 456
Non-critical_ROB_Stalls_Percent_4_Bucket_1: 845194
Critical_ROB_Stalls_Percent_4_Bucket_2: 3
Non-critical_ROB_Stalls_Percent_4_Bucket_2: 305087
Critical_ROB_Stalls_Percent_4_Bucket_3: 1
Non-critical_ROB_Stalls_Percent_4_Bucket_3: 81841
Critical_ROB_Stalls_Percent_4_Bucket_4: 0
Non-critical_ROB_Stalls_Percent_4_Bucket_4: 13613
Critical_ROB_Stalls_Percent_4_Bucket_5: 0
Non-critical_ROB_Stalls_Percent_4_Bucket_5: 2666
Critical_ROB_Stalls_Percent_4_Bucket_6: 0
Non-critical_ROB_Stalls_Percent_4_Bucket_6: 18798
Critical_ROB_Stalls_Percent_5_Bucket_0: 33473
Non-critical_ROB_Stalls_Percent_5_Bucket_0: 1485427
Critical_ROB_Stalls_Percent_5_Bucket_1: 456
Non-critical_ROB_Stalls_Percent_5_Bucket_1: 845194
Critical_ROB_Stalls_Percent_5_Bucket_2: 3
Non-critical_ROB_Stalls_Percent_5_Bucket_2: 305087
Critical_ROB_Stalls_Percent_5_Bucket_3: 1
Non-critical_ROB_Stalls_Percent_5_Bucket_3: 81841
Critical_ROB_Stalls_Percent_5_Bucket_4: 0
Non-critical_ROB_Stalls_Percent_5_Bucket_4: 13613
Critical_ROB_Stalls_Percent_5_Bucket_5: 0
Non-critical_ROB_Stalls_Percent_5_Bucket_5: 2666
Critical_ROB_Stalls_Percent_5_Bucket_6: 0
Non-critical_ROB_Stalls_Percent_5_Bucket_6: 18798
Critical_ROB_Stalls_Percent_6_Bucket_0: 33473
Non-critical_ROB_Stalls_Percent_6_Bucket_0: 1485427
Critical_ROB_Stalls_Percent_6_Bucket_1: 456
Non-critical_ROB_Stalls_Percent_6_Bucket_1: 845194
Critical_ROB_Stalls_Percent_6_Bucket_2: 3
Non-critical_ROB_Stalls_Percent_6_Bucket_2: 305087
Critical_ROB_Stalls_Percent_6_Bucket_3: 1
Non-critical_ROB_Stalls_Percent_6_Bucket_3: 81841
Critical_ROB_Stalls_Percent_6_Bucket_4: 0
Non-critical_ROB_Stalls_Percent_6_Bucket_4: 13613
Critical_ROB_Stalls_Percent_6_Bucket_5: 0
Non-critical_ROB_Stalls_Percent_6_Bucket_5: 2666
Critical_ROB_Stalls_Percent_6_Bucket_6: 0
Non-critical_ROB_Stalls_Percent_6_Bucket_6: 18798
Critical_ROB_Stalls_Percent_7_Bucket_0: 33473
Non-critical_ROB_Stalls_Percent_7_Bucket_0: 1485427
Critical_ROB_Stalls_Percent_7_Bucket_1: 456
Non-critical_ROB_Stalls_Percent_7_Bucket_1: 845194
Critical_ROB_Stalls_Percent_7_Bucket_2: 3
Non-critical_ROB_Stalls_Percent_7_Bucket_2: 305087
Critical_ROB_Stalls_Percent_7_Bucket_3: 1
Non-critical_ROB_Stalls_Percent_7_Bucket_3: 81841
Critical_ROB_Stalls_Percent_7_Bucket_4: 0
Non-critical_ROB_Stalls_Percent_7_Bucket_4: 13613
Critical_ROB_Stalls_Percent_7_Bucket_5: 0
Non-critical_ROB_Stalls_Percent_7_Bucket_5: 2666
Critical_ROB_Stalls_Percent_7_Bucket_6: 0
Non-critical_ROB_Stalls_Percent_7_Bucket_6: 18798
Critical_ROB_Stalls_Percent_8_Bucket_0: 33473
Non-critical_ROB_Stalls_Percent_8_Bucket_0: 1485427
Critical_ROB_Stalls_Percent_8_Bucket_1: 456
Non-critical_ROB_Stalls_Percent_8_Bucket_1: 845194
Critical_ROB_Stalls_Percent_8_Bucket_2: 3
Non-critical_ROB_Stalls_Percent_8_Bucket_2: 305087
Critical_ROB_Stalls_Percent_8_Bucket_3: 1
Non-critical_ROB_Stalls_Percent_8_Bucket_3: 81841
Critical_ROB_Stalls_Percent_8_Bucket_4: 0
Non-critical_ROB_Stalls_Percent_8_Bucket_4: 13613
Critical_ROB_Stalls_Percent_8_Bucket_5: 0
Non-critical_ROB_Stalls_Percent_8_Bucket_5: 2666
Critical_ROB_Stalls_Percent_8_Bucket_6: 0
Non-critical_ROB_Stalls_Percent_8_Bucket_6: 18798
Average ROB occupancy Load Stall Begin: 47.862
Average ROB occupancy Load Stall End: 58.1551
Min ROB occupancy Load Stall Begin: 1
Max ROB occupancy Load Stall Begin: 352
Min ROB occupancy Load Stall End: 1
Max ROB occupancy Load Stall End: 352
Average ROB occupancy Critical Load Stall Begin: -nan
Average ROB occupancy Critical Load Stall End: -nan
Min ROB occupancy Critical Load Stall Begin: 400
Max ROB occupancy Critical Load Stall Begin: 0
Min ROB occupancy Critical Load Stall End: 400
Max ROB occupancy Critical Load Stall End: 0
 ROB Load Stall Begin Bucket Count 0: 1831998
 ROB Load Stall End Bucket Count 0: 1518900
 ROB Critical Load Stall Begin Bucket Count 0: 0
 ROB Critical Load Stall End Bucket Count 0: 0
 ROB Load Stall Begin Bucket Count 1: 656154
 ROB Load Stall End Bucket Count 1: 845650
 ROB Critical Load Stall Begin Bucket Count 1: 0
 ROB Critical Load Stall End Bucket Count 1: 0
 ROB Load Stall Begin Bucket Count 2: 216313
 ROB Load Stall End Bucket Count 2: 305090
 ROB Critical Load Stall Begin Bucket Count 2: 0
 ROB Critical Load Stall End Bucket Count 2: 0
 ROB Load Stall Begin Bucket Count 3: 53268
 ROB Load Stall End Bucket Count 3: 81842
 ROB Critical Load Stall Begin Bucket Count 3: 0
 ROB Critical Load Stall End Bucket Count 3: 0
 ROB Load Stall Begin Bucket Count 4: 8791
 ROB Load Stall End Bucket Count 4: 13613
 ROB Critical Load Stall Begin Bucket Count 4: 0
 ROB Critical Load Stall End Bucket Count 4: 0
 ROB Load Stall Begin Bucket Count 5: 2725
 ROB Load Stall End Bucket Count 5: 2666
 ROB Critical Load Stall Begin Bucket Count 5: 0
 ROB Critical Load Stall End Bucket Count 5: 0
 ROB Load Stall Begin Bucket Count 6: 17310
 ROB Load Stall End Bucket Count 6: 18798
 ROB Critical Load Stall Begin Bucket Count 6: 0
 ROB Critical Load Stall End Bucket Count 6: 0
PIST Tag Read Accesses: 0
PIST Read Accesses: 0
PIST Tag Write Accesses: 0
PIST Write Accesses: 0
Criticality detector called times: 0
Max global_stall_cycles_count: 0
Threshold Modified: 0 times, factor: 0
ITLB TOTAL     ACCESS:   10544495  HIT:    9904326  MISS:     640169  HIT %:    93.9289  MISS %:    6.07112   MPKI: 12.8034
ITLB LOAD TRANSLATION ACCESS:    8278806  HIT:    8256294  MISS:      22512  HIT %:    99.7281  MISS %:   0.271923   MPKI: 0.45024
ITLB TRANSLATION FROM L1D PREFETCHER ACCESS:    2265689  HIT:    1648032  MISS:     617657  HIT %:    72.7387  MISS %:    27.2613   MPKI: 12.3531
ITLB PREFETCH  REQUESTED:          0  ISSUED:          0  USEFUL:     531149  USELESS:      86511
ITLB USEFUL LOAD PREFETCHES:     531149 PREFETCH ISSUED TO LOWER LEVEL:          0  ACCURACY: inf
ITLB TIMELY PREFETCHES:     531149 LATE PREFETCHES: 38 DROPPED PREFETCHES: 0
ITLB PREFETCHES SAME FILL-ORIGIN LEVEL: 0 DIFFERENT FILL-ORIGIN LEVEL: 0
ITLB AVERAGE MISS LATENCY: 2983.76 cycles
ITLB RQ	ACCESS:   16032577	FORWARD:          0	MERGED:    5448690	TO_CACHE:   10583887

DTLB TOTAL     ACCESS:    9468866  HIT:    9023588  MISS:     445278  HIT %:    95.2975  MISS %:    4.70255   MPKI: 8.90556
DTLB LOAD TRANSLATION ACCESS:    9468866  HIT:    9023588  MISS:     445278  HIT %:    95.2975  MISS %:    4.70255   MPKI: 8.90556
DTLB PREFETCH  REQUESTED:          0  ISSUED:          0  USEFUL:          0  USELESS:          0
DTLB USEFUL LOAD PREFETCHES:          0 PREFETCH ISSUED TO LOWER LEVEL:          0  ACCURACY: -nan
DTLB TIMELY PREFETCHES:          0 LATE PREFETCHES: 0 DROPPED PREFETCHES: 0
DTLB PREFETCHES SAME FILL-ORIGIN LEVEL: 0 DIFFERENT FILL-ORIGIN LEVEL: 0
DTLB AVERAGE MISS LATENCY: 9.4372 cycles
DTLB RQ	ACCESS:   13382206	FORWARD:          0	MERGED:    3893148	TO_CACHE:    9489058

STLB TOTAL     ACCESS:    1088427  HIT:    1084118  MISS:       4309  HIT %:    99.6041  MISS %:   0.395892   MPKI: 0.08618
STLB LOAD TRANSLATION ACCESS:     467752  HIT:     463542  MISS:       4210  HIT %:       99.1  MISS %:    0.90005   MPKI: 0.0842
STLB TRANSLATION FROM L1D PREFETCHER ACCESS:     620675  HIT:     620576  MISS:         99  HIT %:     99.984  MISS %:  0.0159504   MPKI: 0.00198
STLB PREFETCH  REQUESTED:          0  ISSUED:          0  USEFUL:         20  USELESS:         76
STLB USEFUL LOAD PREFETCHES:         20 PREFETCH ISSUED TO LOWER LEVEL:          0  ACCURACY: inf
STLB TIMELY PREFETCHES:         20 LATE PREFETCHES: 0 DROPPED PREFETCHES: 0
STLB PREFETCHES SAME FILL-ORIGIN LEVEL: 0 DIFFERENT FILL-ORIGIN LEVEL: 0
STLB AVERAGE MISS LATENCY: 44.9102 cycles
STLB RQ	ACCESS:    1089478	FORWARD:          0	MERGED:       1051	TO_CACHE:    1088427

STLB Hit, L1D data hit: 0
STLB Hit, L2C data hit: 0
STLB Hit, LLC data hit: 0
STLB Hit, LLC data miss: 0
STLB STLB hints to L2: 0
L1D TOTAL     ACCESS:   13244083  HIT:   12604977  MISS:     639106  HIT %:    95.1744  MISS %:     4.8256   MPKI: 12.7821
L1D LOAD      ACCESS:    6977237  HIT:    6436582  MISS:     540655  HIT %:    92.2512  MISS %:    7.74884   MPKI: 10.8131
L1D RFO       ACCESS:    6262922  HIT:    6166434  MISS:      96488  HIT %:    98.4594  MISS %:    1.54062   MPKI: 1.92976
L1D PREFETCH  ACCESS:       3924  HIT:       1961  MISS:       1963  HIT %:    49.9745  MISS %:    50.0255   MPKI: 0.03926
L1D PREFETCH  REQUESTED:       8098  ISSUED:       8098  USEFUL:        302  USELESS:       1657
L1D USEFUL LOAD PREFETCHES:        302 PREFETCH ISSUED TO LOWER LEVEL:       1990  ACCURACY: 15.1759
L1D TIMELY PREFETCHES:        302 LATE PREFETCHES: 25 DROPPED PREFETCHES: 0
L1D PREFETCHES SAME FILL-ORIGIN LEVEL: 1990 DIFFERENT FILL-ORIGIN LEVEL: 0
L1D AVERAGE MISS LATENCY: 2189.28 cycles
L1D RQ	ACCESS:   10506692	FORWARD:          0	MERGED:    3347653	TO_CACHE:    7003055
L1D WQ	ACCESS:    6510215	FORWARD:     156020	MERGED:     131064	TO_CACHE:    6379151
L1D PQ	ACCESS:       4067	FORWARD:          0	MERGED:          0	TO_CACHE:       4031

L1D UNIQUE REGIONS ACCESSED: 0
L1D REGIONS CONFLICTS: 0
L1D Cross Page Prefetch Requests: 0
L1D Same Page Prefetch Requests: 8042
L1D ROI Sum of L1D PQ occupancy: 52284
L1D PREFETCHES PUSHED FROM L2C: 0
L1I TOTAL     ACCESS:   15972534  HIT:   11500217  MISS:    4472317  HIT %:         72  MISS %:         28   MPKI: 89.4463
L1I LOAD      ACCESS:    9776695  HIT:    9747797  MISS:      28898  HIT %:    99.7044  MISS %:    0.29558   MPKI: 0.57796
L1I PREFETCH  ACCESS:    6195839  HIT:    1752420  MISS:    4443419  HIT %:    28.2838  MISS %:    71.7162   MPKI: 88.8684
L1I PREFETCH  REQUESTED:    6421664  ISSUED:    6392710  USEFUL:    3408748  USELESS:    1034660
L1I USEFUL LOAD PREFETCHES:    3408748 PREFETCH ISSUED TO LOWER LEVEL:    4453884  ACCURACY: 76.5343
L1I TIMELY PREFETCHES:    3408748 LATE PREFETCHES: 10459 DROPPED PREFETCHES: 0
L1I PREFETCHES SAME FILL-ORIGIN LEVEL: 4453884 DIFFERENT FILL-ORIGIN LEVEL: 0
L1I AVERAGE MISS LATENCY: 107675 cycles
L1I RQ	ACCESS:   14212718	FORWARD:          0	MERGED:    4433585	TO_CACHE:    9779133
L1I PQ	ACCESS:    6392710	FORWARD:          0	MERGED:     139266	TO_CACHE:    6253444

BTB TOTAL     ACCESS:    6392210  HIT:    5397837  MISS:     994373  HIT %:     84.444  MISS %:     15.556   MPKI: 19.8875
BTB BRANCH_DIRECT_JUMP	ACCESS:     774599  HIT:     695785  MISS:      78814
BTB BRANCH_INDIRECT	ACCESS:     108807  HIT:      74004  MISS:      34803
BTB BRANCH_CONDITIONAL	ACCESS:    2988960  HIT:    2775647  MISS:     213313
BTB BRANCH_DIRECT_CALL	ACCESS:    1048809  HIT:     930092  MISS:     118717
BTB BRANCH_INDIRECT_CALL	ACCESS:     211109  HIT:     142418  MISS:      68691
BTB BRANCH_RETURN	ACCESS:    1259926  HIT:     779891  MISS:     480035
BTB BRANCH_OTHER ACCESS:          0  HIT:          0  MISS:          0

L2C TOTAL     ACCESS:    5356601  HIT:    5138561  MISS:     218040  HIT %:    95.9295  MISS %:    4.07049   MPKI: 4.3608
L2C LOAD      ACCESS:     559061  HIT:     407200  MISS:     151861  HIT %:    72.8364  MISS %:    27.1636   MPKI: 3.03722
L2C DATA LOAD MPKI: 3.00834
L2C INSTRUCTION LOAD MPKI: 0.02888
L2C RFO       ACCESS:      96482  HIT:      71265  MISS:      25217  HIT %:    73.8635  MISS %:    26.1365   MPKI: 0.50434
L2C PREFETCH  ACCESS:    4455868  HIT:    4423671  MISS:      32197  HIT %:    99.2774  MISS %:   0.722575   MPKI: 0.64394
L2C DATA PREFETCH MPKI: 0.02524
L2C INSTRUCTION PREFETCH MPKI: 0.6187
L2C WRITEBACK ACCESS:     240394  HIT:     234073  MISS:       6321  HIT %:    97.3706  MISS %:    2.62943   MPKI: 0.12642
L2C LOAD TRANSLATION ACCESS:       4655  HIT:       2327  MISS:       2328  HIT %:    49.9893  MISS %:    50.0107   MPKI: 0.04656
L2C TRANSLATION FROM L1D PREFETCHER ACCESS:        141  HIT:         25  MISS:        116  HIT %:    17.7305  MISS %:    82.2695   MPKI: 0.00232
L2C PREFETCH  REQUESTED:          0  ISSUED:          0  USEFUL:        481  USELESS:      31653
L2C USEFUL LOAD PREFETCHES:        481 PREFETCH ISSUED TO LOWER LEVEL:      32197  ACCURACY: 1.49393
L2C TIMELY PREFETCHES:        481 LATE PREFETCHES: 0 DROPPED PREFETCHES: 0
L2C PREFETCHES SAME FILL-ORIGIN LEVEL: 0 DIFFERENT FILL-ORIGIN LEVEL: 0
L2C AVERAGE MISS LATENCY: 43.2126 cycles
L2C RQ	ACCESS:     660351	FORWARD:          0	MERGED:          0	TO_CACHE:     660339
L2C WQ	ACCESS:     240394	FORWARD:         12	MERGED:          0	TO_CACHE:     240394
L2C PQ	ACCESS:    4455874	FORWARD:          0	MERGED:          0	TO_CACHE:    4455874

L2C Instructions Evicting Data 14836
L2C Translations Evicting Data 2231
L2C Data Evicting Data 161297
L2C Instructions Evicting Instructions 17363
L2C Translations Evicting Instructions 173
L2C Data Evicting Instructions 13446
L2C Instructions Evicting Translations 180
L2C Translations Evicting Translations 40
L2C Data Evicting Translations 2153
L2C Dense regions hint from L2: 0
PSCL5 TOTAL     ACCESS:       4309  HIT:       4309  MISS:          0  HIT %:        100  MISS %:          0   MPKI: 0
PSCL5 LOAD TRANSLATION ACCESS:       4210  HIT:       4210  MISS:          0  HIT %:        100  MISS %:          0   MPKI: 0
PSCL5 TRANSLATION FROM L1D PREFETCHER ACCESS:         99  HIT:         99  MISS:          0  HIT %:        100  MISS %:          0   MPKI: 0
PSCL5 PREFETCH  REQUESTED:          0  ISSUED:          0  USEFUL:          0  USELESS:          0
PSCL5 USEFUL LOAD PREFETCHES:          0 PREFETCH ISSUED TO LOWER LEVEL:          0  ACCURACY: -nan
PSCL5 TIMELY PREFETCHES:          0 LATE PREFETCHES: 0 DROPPED PREFETCHES: 0
PSCL5 PREFETCHES SAME FILL-ORIGIN LEVEL: 0 DIFFERENT FILL-ORIGIN LEVEL: 0

PSCL4 TOTAL     ACCESS:       4295  HIT:       4290  MISS:          5  HIT %:    99.8836  MISS %:   0.116414   MPKI: 0.0001
PSCL4 LOAD TRANSLATION ACCESS:       4196  HIT:       4191  MISS:          5  HIT %:    99.8808  MISS %:   0.119161   MPKI: 0.0001
PSCL4 TRANSLATION FROM L1D PREFETCHER ACCESS:         99  HIT:         99  MISS:          0  HIT %:        100  MISS %:          0   MPKI: 0
PSCL4 PREFETCH  REQUESTED:          0  ISSUED:          0  USEFUL:          0  USELESS:          0
PSCL4 USEFUL LOAD PREFETCHES:          0 PREFETCH ISSUED TO LOWER LEVEL:          0  ACCURACY: -nan
PSCL4 TIMELY PREFETCHES:          0 LATE PREFETCHES: 0 DROPPED PREFETCHES: 0
PSCL4 PREFETCHES SAME FILL-ORIGIN LEVEL: 0 DIFFERENT FILL-ORIGIN LEVEL: 0

PSCL3 TOTAL     ACCESS:       4302  HIT:       4297  MISS:          5  HIT %:    99.8838  MISS %:   0.116225   MPKI: 0.0001
PSCL3 LOAD TRANSLATION ACCESS:       4203  HIT:       4198  MISS:          5  HIT %:     99.881  MISS %:   0.118963   MPKI: 0.0001
PSCL3 TRANSLATION FROM L1D PREFETCHER ACCESS:         99  HIT:         99  MISS:          0  HIT %:        100  MISS %:          0   MPKI: 0
PSCL3 PREFETCH  REQUESTED:          0  ISSUED:          0  USEFUL:          0  USELESS:          0
PSCL3 USEFUL LOAD PREFETCHES:          0 PREFETCH ISSUED TO LOWER LEVEL:          0  ACCURACY: -nan
PSCL3 TIMELY PREFETCHES:          0 LATE PREFETCHES: 0 DROPPED PREFETCHES: 0
PSCL3 PREFETCHES SAME FILL-ORIGIN LEVEL: 0 DIFFERENT FILL-ORIGIN LEVEL: 0

PSCL2 TOTAL     ACCESS:       4309  HIT:       3832  MISS:        477  HIT %:    88.9301  MISS %:    11.0699   MPKI: 0.00954
PSCL2 LOAD TRANSLATION ACCESS:       4252  HIT:       3775  MISS:        477  HIT %:    88.7817  MISS %:    11.2183   MPKI: 0.00954
PSCL2 TRANSLATION FROM L1D PREFETCHER ACCESS:         57  HIT:         57  MISS:          0  HIT %:        100  MISS %:          0   MPKI: 0
PSCL2 PREFETCH  REQUESTED:          0  ISSUED:          0  USEFUL:          0  USELESS:          0
PSCL2 USEFUL LOAD PREFETCHES:          0 PREFETCH ISSUED TO LOWER LEVEL:          0  ACCURACY: -nan
PSCL2 TIMELY PREFETCHES:          0 LATE PREFETCHES: 0 DROPPED PREFETCHES: 0
PSCL2 PREFETCHES SAME FILL-ORIGIN LEVEL: 0 DIFFERENT FILL-ORIGIN LEVEL: 0

LLC TOTAL     ACCESS:     304727  HIT:     285652  MISS:      19075  HIT %:    93.7403  MISS %:     6.2597   MPKI: 0.3815
LLC LOAD      ACCESS:     151861  HIT:     139114  MISS:      12747  HIT %:    91.6061  MISS %:    8.39386   MPKI: 0.25494
LLC RFO       ACCESS:      25217  HIT:      20198  MISS:       5019  HIT %:    80.0968  MISS %:    19.9032   MPKI: 0.10038
LLC PREFETCH  ACCESS:      32197  HIT:      31266  MISS:        931  HIT %:    97.1084  MISS %:    2.89157   MPKI: 0.01862
LLC WRITEBACK ACCESS:      93008  HIT:      92732  MISS:        276  HIT %:    99.7033  MISS %:   0.296749   MPKI: 0.00552
LLC LOAD TRANSLATION ACCESS:       2328  HIT:       2229  MISS:         99  HIT %:    95.7474  MISS %:    4.25258   MPKI: 0.00198
LLC TRANSLATION FROM L1D PREFETCHER ACCESS:        116  HIT:        113  MISS:          3  HIT %:    97.4138  MISS %:    2.58621   MPKI: 6e-05
LLC PREFETCH  REQUESTED:          0  ISSUED:          0  USEFUL:         72  USELESS:        864
LLC USEFUL LOAD PREFETCHES:         72 PREFETCH ISSUED TO LOWER LEVEL:        931  ACCURACY: 7.73362
LLC TIMELY PREFETCHES:         72 LATE PREFETCHES: 0 DROPPED PREFETCHES: 0
LLC PREFETCHES SAME FILL-ORIGIN LEVEL: 0 DIFFERENT FILL-ORIGIN LEVEL: 0
LLC AVERAGE MISS LATENCY: 160.697 cycles
LLC RQ	ACCESS:     179522	FORWARD:          0	MERGED:          0	TO_CACHE:     179522
LLC WQ	ACCESS:      93008	FORWARD:          0	MERGED:          0	TO_CACHE:      93008
LLC PQ	ACCESS:      32197	FORWARD:          0	MERGED:          0	TO_CACHE:      32197

LLC Dense regions hint to LLC: 0

RAW hits: 1549971
Loads Generated: 12056659
Loads sent to L1D: 10506692
Stores Generated: 6510203
Stores sent to L1D: 6510215
Major fault: 0 Minor fault: 2572
Allocated PAGES: 2572
I-Shadow cache 408 bytes
Touched + WorthPF tables 6144 bytes 
MMA filter 174 bytes 
FNL filter 272 bytes 
TOTAL PREFETCHER STORAGE SIZE: 25174 bytes
CPU 0 L1I next line prefetcher final stats

stream: 
stream:times selected: 5777
stream:pref_filled: 3581
stream:pref_useful: 451
stream:pref_late: 83
stream:misses: 227
stream:misses_by_poll: 0

CS: 
CS:times selected: 103
CS:pref_filled: 67
CS:pref_useful: 7
CS:pref_late: 0
CS:misses: 6
CS:misses_by_poll: 0

CPLX: 
CPLX:times selected: 4942
CPLX:pref_filled: 833
CPLX:pref_useful: 59
CPLX:pref_late: 7
CPLX:misses: 416
CPLX:misses_by_poll: 0

NL_L1: 
NL:times selected: 49
NL:pref_filled: 29
NL:pref_useful: 1
NL:pref_late: 0
NL:misses: 8
NL:misses_by_poll: 0

total selections: 10871
total_filled: 1963
total_useful: 302
total_late: 96
total_polluted: 0
total_misses_after_warmup: 15708
conflicts: 101261
Degree Incremented Times: 0
Degree Decremented Times: 937

L1 IP Table Write Accesses: 114836
L1 IP Table Read Accesses: 13575
L1 RST Write Accesses: 4224
L1 RST Read Accesses: 8448
L1 CSPT Write Accesses: 4224
L1 CSPT Read Accesses: 9425
L1 RR Filter Tag Write Accesses: 4067
L1 RR Filter Tag Read Accesses: 178561
L1 IP Table Tag Write Accesses: 218889
L1 IP Table Tag Read Accesses: 218889
L1 RST Tag Write Accesses: 0
L1 RST Tag Read Accesses: 35546
L1 RR Filter Write Accesses: 0
L1 RR Filter Read Accesses: 6337
test: 2908

DRAM Statistics
 CHANNEL 0
 RQ ROW_BUFFER_HIT:       1812  ROW_BUFFER_MISS:      16987
 DBUS_CONGESTED:          6
 WQ ROW_BUFFER_HIT:       1704  ROW_BUFFER_MISS:      10615  FULL:          0

 AVG_CONGESTED_CYCLE: 5
 All warmup complete: 2
Channel 0 Bank busy for read cycles: 0
Channel 0 Bank busy for write cycles: 0
Channel 0
Rank 0
0banks busy for read cycles: 61590845
0banks busy for write cycles: 7161
1banks busy for read cycles: 1657590
1banks busy for write cycles: 1002682
2banks busy for read cycles: 341002
2banks busy for write cycles: 267719
3banks busy for read cycles: 82630
3banks busy for write cycles: 93905
4banks busy for read cycles: 8391
4banks busy for write cycles: 40097
5banks busy for read cycles: 1202
5banks busy for write cycles: 19881
6banks busy for read cycles: 849
6banks busy for write cycles: 15128
7banks busy for read cycles: 739
7banks busy for write cycles: 6694
8banks busy for read cycles: 170
8banks busy for write cycles: 4795

CPU 0 Branch Prediction Accuracy: 99.9029% MPKI: 0.19006 Average ROB Occupancy at Mispredict: 58.1686
Branch types
NOT_BRANCH: 40217157 80.4343%
BRANCH_DIRECT_JUMP: 774599 1.5492%
BRANCH_INDIRECT: 108807 0.217614%
BRANCH_CONDITIONAL: 6379334 12.7587%
BRANCH_DIRECT_CALL: 1048809 2.09762%
BRANCH_INDIRECT_CALL: 211109 0.422218%
BRANCH_RETURN: 1259926 2.51985%
BRANCH_OTHER: 0 0%

DRAM PAGES: 1048576
Allocated PAGES: 2572
