
*** ChampSim Multicore Out-of-Order Simulator ***

Warmup Instructions: 50000000
Simulation Instructions: 50000000
Number of CPUs: 1
LLC sets: 2048
LLC ways: 16
Off-chip DRAM Size: 4096 MB Channels: 1 Width: 64-bit Data Rate: 6400 MT/s
CPU 0 runs ../IPC-traces//server_018.champsimtrace.xz
.xz
NUM_OF_IPS_IN_CRITICAL_IP_TRAINING: 64
NUM_OF_CRITICAL_IP_TRAINING_TABLE_WAYS: 2
NUM_OF_CRITICAL_IP_TRAINING_TABLE_SETS: 32
WOBBLY_CRITICAL_IP_CACHE_SETS: 32
WOBBLY_CRITICAL_IP_CACHE_WAYS: 4
BTB has LRU replacement policy
ITLB has LRU replacement policy
DTLB has LRU replacement policy
STLB has LRU replacement policy
CPU 0 L1I next line prefetcher
L1I has LRU replacement policy
IP Table Entries: 256
L1D has LRU replacement policy
Initialize SRRIP state for L2C
Initialize DRRIP state for LLC
Heartbeat CPU 0 instructions: 10000003 cycles: 3145728 heartbeat IPC: 3.17892 cumulative IPC: 3.17892 (Simulation time: 0 hr 6 min 49 sec) 
Heartbeat CPU 0 instructions: 20000001 cycles: 6289308 heartbeat IPC: 3.18109 cumulative IPC: 3.18 (Simulation time: 0 hr 14 min 9 sec) 
Heartbeat CPU 0 instructions: 30000001 cycles: 9351140 heartbeat IPC: 3.26602 cumulative IPC: 3.20817 (Simulation time: 0 hr 21 min 13 sec) 
Heartbeat CPU 0 instructions: 40000002 cycles: 12422267 heartbeat IPC: 3.25613 cumulative IPC: 3.22002 (Simulation time: 0 hr 27 min 53 sec) 
Heartbeat CPU 0 instructions: 50000003 cycles: 15559427 heartbeat IPC: 3.1876 cumulative IPC: 3.21349 (Simulation time: 0 hr 34 min 16 sec) 

Warmup complete CPU 0 instructions: 50000003 cycles: 15559427 (Simulation time: 0 hr 34 min 16 sec) 

% increase in all ip prefetch 457.965
% increase in all ip prefetch -9.80571
Heartbeat CPU 0 instructions: 60000000 cycles: 36429865 heartbeat IPC: 0.479146 cumulative IPC: 0.479146 (Simulation time: 0 hr 41 min 52 sec) 
Heartbeat CPU 0 instructions: 70000000 cycles: 57228406 heartbeat IPC: 0.480803 cumulative IPC: 0.479973 (Simulation time: 0 hr 48 min 38 sec) 
Heartbeat CPU 0 instructions: 80000000 cycles: 77707760 heartbeat IPC: 0.488297 cumulative IPC: 0.482716 (Simulation time: 0 hr 53 min 7 sec) 
Heartbeat CPU 0 instructions: 90000000 cycles: 97124121 heartbeat IPC: 0.51503 cumulative IPC: 0.490408 (Simulation time: 0 hr 58 min 8 sec) 
Heartbeat CPU 0 instructions: 100000001 cycles: 116450180 heartbeat IPC: 0.517436 cumulative IPC: 0.495586 (Simulation time: 1 hr 2 min 40 sec) 
Finished CPU 0 instructions: 50000002 cycles: 100890754 cumulative IPC: 0.495586 (Simulation time: 1 hr 2 min 40 sec) 

ChampSim completed all CPUs

Region of Interest Statistics

CPU 0 cumulative IPC: 0.495586 instructions: 50000002 cycles: 100890754

CPU 0 Average Load ROB stall cycles: 3.05718e+07
CPU 0 Fraction of times ROB stalled by Loads: 45.6584
CPU 0 Percentage of Load stall cycles in Total stall cycles: 2.60049e+08
Issued all: 52014839
Issued LT all: 46697472
rob_not_full_when_issued_lt_all: 16941777
Issued LT one: 40915910
rob_not_full_when_issued_lt_one: 12928631
 Total stall cycles: 83218366
 Total load stall cycles: 216408518928876
CPU 0 NUM of IPS identified critical: 0
CPU 0 Num of Load IPs stalling ROB: 4971
Threshold modification factor: -1
Max PIST entries: 64
Min PIST entries: 0
Avg PIST entries: 32
Trouble in retire width: 0.803253
MaC = Marked as critical.
lt_50_percent_before_Mac: 0
gt_90_percent_before_Mac: 0
gt_75_percent_before_Mac: 0
gt_50_percent_before_Mac: 0
stall_proportion_bin_same_before_after: 0
stall_proportion_bin_lower_before_after: 0
stall_proportion_bin_upper_before_after: 0
average_stall_proportion_before: -nan
average_stall_proportion_after: -nan
Critical IP stalls, total frequency: 0
Non-critical IP stalls, total frequency: 3232016
Total Freq all stalling IPs: 3232016
stat_90_percent_critical_ip_stalls_freq: 2909544
stat_90_percent_non_critical_ip_stalls_freq: 322472
Critical_IP_ROB_Stalls_Bucket_0: 0
Non-critical_IP_ROB_Stalls_Bucket_0: 486720
Critical_IP_ROB_Stalls_Bucket_1: 0
Non-critical_IP_ROB_Stalls_Bucket_1: 607457
Critical_IP_ROB_Stalls_Bucket_2: 0
Non-critical_IP_ROB_Stalls_Bucket_2: 449442
Critical_IP_ROB_Stalls_Bucket_3: 0
Non-critical_IP_ROB_Stalls_Bucket_3: 275710
Critical_IP_ROB_Stalls_Bucket_4: 0
Non-critical_IP_ROB_Stalls_Bucket_4: 168996
Critical_IP_ROB_Stalls_Bucket_5: 0
Non-critical_IP_ROB_Stalls_Bucket_5: 150816
Critical_IP_ROB_Stalls_Bucket_6: 0
Non-critical_IP_ROB_Stalls_Bucket_6: 1092875
0 => IPs accounting for >50 percent of stalls, 1 => 55, 2 => 60, 3 => 65 and so on till 90.
percent50: 50.015 num IPs:  11
percent55: 55.0981 num IPs: 28
percent60: 60.0948 num IPs: 57
percent65: 65.0097 num IPs: 99
percent70: 70.0476 num IPs: 167
percent75: 75.029 num IPs: 236
percent80: 80.0279 num IPs: 307
percent85: 85.0209 num IPs: 386
percent90: 90.0228 num IPs: 487
Critical_ROB_Stalls_Percent_0_Bucket_0: 45009
Non-critical_ROB_Stalls_Percent_0_Bucket_0: 441711
Critical_ROB_Stalls_Percent_0_Bucket_1: 110295
Non-critical_ROB_Stalls_Percent_0_Bucket_1: 497162
Critical_ROB_Stalls_Percent_0_Bucket_2: 146187
Non-critical_ROB_Stalls_Percent_0_Bucket_2: 303255
Critical_ROB_Stalls_Percent_0_Bucket_3: 134873
Non-critical_ROB_Stalls_Percent_0_Bucket_3: 140837
Critical_ROB_Stalls_Percent_0_Bucket_4: 109262
Non-critical_ROB_Stalls_Percent_0_Bucket_4: 59734
Critical_ROB_Stalls_Percent_0_Bucket_5: 102960
Non-critical_ROB_Stalls_Percent_0_Bucket_5: 47856
Critical_ROB_Stalls_Percent_0_Bucket_6: 967907
Non-critical_ROB_Stalls_Percent_0_Bucket_6: 124968
Critical_ROB_Stalls_Percent_1_Bucket_0: 105067
Non-critical_ROB_Stalls_Percent_1_Bucket_0: 381653
Critical_ROB_Stalls_Percent_1_Bucket_1: 160907
Non-critical_ROB_Stalls_Percent_1_Bucket_1: 446550
Critical_ROB_Stalls_Percent_1_Bucket_2: 162245
Non-critical_ROB_Stalls_Percent_1_Bucket_2: 287197
Critical_ROB_Stalls_Percent_1_Bucket_3: 155292
Non-critical_ROB_Stalls_Percent_1_Bucket_3: 120418
Critical_ROB_Stalls_Percent_1_Bucket_4: 114700
Non-critical_ROB_Stalls_Percent_1_Bucket_4: 54296
Critical_ROB_Stalls_Percent_1_Bucket_5: 107287
Non-critical_ROB_Stalls_Percent_1_Bucket_5: 43529
Critical_ROB_Stalls_Percent_1_Bucket_6: 975281
Non-critical_ROB_Stalls_Percent_1_Bucket_6: 117594
Critical_ROB_Stalls_Percent_2_Bucket_0: 162090
Non-critical_ROB_Stalls_Percent_2_Bucket_0: 324630
Critical_ROB_Stalls_Percent_2_Bucket_1: 191644
Non-critical_ROB_Stalls_Percent_2_Bucket_1: 415813
Critical_ROB_Stalls_Percent_2_Bucket_2: 191227
Non-critical_ROB_Stalls_Percent_2_Bucket_2: 258215
Critical_ROB_Stalls_Percent_2_Bucket_3: 164184
Non-critical_ROB_Stalls_Percent_2_Bucket_3: 111526
Critical_ROB_Stalls_Percent_2_Bucket_4: 119989
Non-critical_ROB_Stalls_Percent_2_Bucket_4: 49007
Critical_ROB_Stalls_Percent_2_Bucket_5: 112432
Non-critical_ROB_Stalls_Percent_2_Bucket_5: 38384
Critical_ROB_Stalls_Percent_2_Bucket_6: 1000708
Non-critical_ROB_Stalls_Percent_2_Bucket_6: 92167
Critical_ROB_Stalls_Percent_3_Bucket_0: 201514
Non-critical_ROB_Stalls_Percent_3_Bucket_0: 285206
Critical_ROB_Stalls_Percent_3_Bucket_1: 236485
Non-critical_ROB_Stalls_Percent_3_Bucket_1: 370972
Critical_ROB_Stalls_Percent_3_Bucket_2: 226752
Non-critical_ROB_Stalls_Percent_3_Bucket_2: 222690
Critical_ROB_Stalls_Percent_3_Bucket_3: 172635
Non-critical_ROB_Stalls_Percent_3_Bucket_3: 103075
Critical_ROB_Stalls_Percent_3_Bucket_4: 125140
Non-critical_ROB_Stalls_Percent_3_Bucket_4: 43856
Critical_ROB_Stalls_Percent_3_Bucket_5: 119464
Non-critical_ROB_Stalls_Percent_3_Bucket_5: 31352
Critical_ROB_Stalls_Percent_3_Bucket_6: 1019135
Non-critical_ROB_Stalls_Percent_3_Bucket_6: 73740
Critical_ROB_Stalls_Percent_4_Bucket_0: 225115
Non-critical_ROB_Stalls_Percent_4_Bucket_0: 261605
Critical_ROB_Stalls_Percent_4_Bucket_1: 289005
Non-critical_ROB_Stalls_Percent_4_Bucket_1: 318452
Critical_ROB_Stalls_Percent_4_Bucket_2: 260266
Non-critical_ROB_Stalls_Percent_4_Bucket_2: 189176
Critical_ROB_Stalls_Percent_4_Bucket_3: 203281
Non-critical_ROB_Stalls_Percent_4_Bucket_3: 72429
Critical_ROB_Stalls_Percent_4_Bucket_4: 131520
Non-critical_ROB_Stalls_Percent_4_Bucket_4: 37476
Critical_ROB_Stalls_Percent_4_Bucket_5: 126091
Non-critical_ROB_Stalls_Percent_4_Bucket_5: 24725
Critical_ROB_Stalls_Percent_4_Bucket_6: 1028667
Non-critical_ROB_Stalls_Percent_4_Bucket_6: 64208
Critical_ROB_Stalls_Percent_5_Bucket_0: 252629
Non-critical_ROB_Stalls_Percent_5_Bucket_0: 234091
Critical_ROB_Stalls_Percent_5_Bucket_1: 344100
Non-critical_ROB_Stalls_Percent_5_Bucket_1: 263357
Critical_ROB_Stalls_Percent_5_Bucket_2: 300157
Non-critical_ROB_Stalls_Percent_5_Bucket_2: 149285
Critical_ROB_Stalls_Percent_5_Bucket_3: 216011
Non-critical_ROB_Stalls_Percent_5_Bucket_3: 59699
Critical_ROB_Stalls_Percent_5_Bucket_4: 146896
Non-critical_ROB_Stalls_Percent_5_Bucket_4: 22100
Critical_ROB_Stalls_Percent_5_Bucket_5: 132077
Non-critical_ROB_Stalls_Percent_5_Bucket_5: 18739
Critical_ROB_Stalls_Percent_5_Bucket_6: 1033071
Non-critical_ROB_Stalls_Percent_5_Bucket_6: 59804
Critical_ROB_Stalls_Percent_6_Bucket_0: 292655
Non-critical_ROB_Stalls_Percent_6_Bucket_0: 194065
Critical_ROB_Stalls_Percent_6_Bucket_1: 413718
Non-critical_ROB_Stalls_Percent_6_Bucket_1: 193739
Critical_ROB_Stalls_Percent_6_Bucket_2: 329177
Non-critical_ROB_Stalls_Percent_6_Bucket_2: 120265
Critical_ROB_Stalls_Percent_6_Bucket_3: 225383
Non-critical_ROB_Stalls_Percent_6_Bucket_3: 50327
Critical_ROB_Stalls_Percent_6_Bucket_4: 149592
Non-critical_ROB_Stalls_Percent_6_Bucket_4: 19404
Critical_ROB_Stalls_Percent_6_Bucket_5: 134040
Non-critical_ROB_Stalls_Percent_6_Bucket_5: 16776
Critical_ROB_Stalls_Percent_6_Bucket_6: 1041942
Non-critical_ROB_Stalls_Percent_6_Bucket_6: 50933
Critical_ROB_Stalls_Percent_7_Bucket_0: 338057
Non-critical_ROB_Stalls_Percent_7_Bucket_0: 148663
Critical_ROB_Stalls_Percent_7_Bucket_1: 458993
Non-critical_ROB_Stalls_Percent_7_Bucket_1: 148464
Critical_ROB_Stalls_Percent_7_Bucket_2: 370139
Non-critical_ROB_Stalls_Percent_7_Bucket_2: 79303
Critical_ROB_Stalls_Percent_7_Bucket_3: 238288
Non-critical_ROB_Stalls_Percent_7_Bucket_3: 37422
Critical_ROB_Stalls_Percent_7_Bucket_4: 154896
Non-critical_ROB_Stalls_Percent_7_Bucket_4: 14100
Critical_ROB_Stalls_Percent_7_Bucket_5: 137446
Non-critical_ROB_Stalls_Percent_7_Bucket_5: 13370
Critical_ROB_Stalls_Percent_7_Bucket_6: 1050063
Non-critical_ROB_Stalls_Percent_7_Bucket_6: 42812
Critical_ROB_Stalls_Percent_8_Bucket_0: 385482
Non-critical_ROB_Stalls_Percent_8_Bucket_0: 101238
Critical_ROB_Stalls_Percent_8_Bucket_1: 510500
Non-critical_ROB_Stalls_Percent_8_Bucket_1: 96957
Critical_ROB_Stalls_Percent_8_Bucket_2: 397080
Non-critical_ROB_Stalls_Percent_8_Bucket_2: 52362
Critical_ROB_Stalls_Percent_8_Bucket_3: 247688
Non-critical_ROB_Stalls_Percent_8_Bucket_3: 28022
Critical_ROB_Stalls_Percent_8_Bucket_4: 158565
Non-critical_ROB_Stalls_Percent_8_Bucket_4: 10431
Critical_ROB_Stalls_Percent_8_Bucket_5: 143312
Non-critical_ROB_Stalls_Percent_8_Bucket_5: 7504
Critical_ROB_Stalls_Percent_8_Bucket_6: 1066917
Non-critical_ROB_Stalls_Percent_8_Bucket_6: 25958
Average ROB occupancy Load Stall Begin: 184.226
Average ROB occupancy Load Stall End: 192.818
Min ROB occupancy Load Stall Begin: 1
Max ROB occupancy Load Stall Begin: 352
Min ROB occupancy Load Stall End: 1
Max ROB occupancy Load Stall End: 352
Average ROB occupancy Critical Load Stall Begin: -nan
Average ROB occupancy Critical Load Stall End: -nan
Min ROB occupancy Critical Load Stall Begin: 400
Max ROB occupancy Critical Load Stall Begin: 0
Min ROB occupancy Critical Load Stall End: 400
Max ROB occupancy Critical Load Stall End: 0
 ROB Load Stall Begin Bucket Count 0: 690629
 ROB Load Stall End Bucket Count 0: 486720
 ROB Critical Load Stall Begin Bucket Count 0: 0
 ROB Critical Load Stall End Bucket Count 0: 0
 ROB Load Stall Begin Bucket Count 1: 541819
 ROB Load Stall End Bucket Count 1: 607457
 ROB Critical Load Stall Begin Bucket Count 1: 0
 ROB Critical Load Stall End Bucket Count 1: 0
 ROB Load Stall Begin Bucket Count 2: 399370
 ROB Load Stall End Bucket Count 2: 449442
 ROB Critical Load Stall Begin Bucket Count 2: 0
 ROB Critical Load Stall End Bucket Count 2: 0
 ROB Load Stall Begin Bucket Count 3: 229060
 ROB Load Stall End Bucket Count 3: 275710
 ROB Critical Load Stall Begin Bucket Count 3: 0
 ROB Critical Load Stall End Bucket Count 3: 0
 ROB Load Stall Begin Bucket Count 4: 155956
 ROB Load Stall End Bucket Count 4: 168996
 ROB Critical Load Stall Begin Bucket Count 4: 0
 ROB Critical Load Stall End Bucket Count 4: 0
 ROB Load Stall Begin Bucket Count 5: 151759
 ROB Load Stall End Bucket Count 5: 150816
 ROB Critical Load Stall Begin Bucket Count 5: 0
 ROB Critical Load Stall End Bucket Count 5: 0
 ROB Load Stall Begin Bucket Count 6: 1063423
 ROB Load Stall End Bucket Count 6: 1092875
 ROB Critical Load Stall Begin Bucket Count 6: 0
 ROB Critical Load Stall End Bucket Count 6: 0
PIST Tag Read Accesses: 2857262
PIST Read Accesses: 1428631
PIST Tag Write Accesses: 2857262
PIST Write Accesses: 1428631
Criticality detector called times: 1787200
Max global_stall_cycles_count: 3942285
Threshold Modified: 1 times, factor: -1
Sturdy critical IP cache stats: 
 Unused entries: 0
CIC Tag Read Accesses: 0
CIC Read Accesses: 0
CIC Tag Write Accesses: 0
CIC Write Accesses: 0
Wobbly critical IP cache stats: 
 Unused entries: 116
CIC Tag Read Accesses: 91755219
CIC Read Accesses: 0
CIC Tag Write Accesses: 174
CIC Write Accesses: 0
ITLB TOTAL     ACCESS:   10309212  HIT:    9828486  MISS:     480726  HIT %:    95.3369  MISS %:    4.66307   MPKI: 9.61452
ITLB LOAD TRANSLATION ACCESS:    8395192  HIT:    8384676  MISS:      10516  HIT %:    99.8747  MISS %:   0.125262   MPKI: 0.21032
ITLB TRANSLATION FROM L1D PREFETCHER ACCESS:    1914020  HIT:    1443810  MISS:     470210  HIT %:    75.4334  MISS %:    24.5666   MPKI: 9.4042
ITLB PREFETCH  REQUESTED:          0  ISSUED:          0  USEFUL:     419745  USELESS:      50463
ITLB USEFUL LOAD PREFETCHES:     419745 PREFETCH ISSUED TO LOWER LEVEL:          0  ACCURACY: inf
ITLB TIMELY PREFETCHES:     419745 LATE PREFETCHES: 267 DROPPED PREFETCHES: 0
ITLB PREFETCHES SAME FILL-ORIGIN LEVEL: 0 DIFFERENT FILL-ORIGIN LEVEL: 0
ITLB AVERAGE MISS LATENCY: 37456.4 cycles
ITLB RQ	ACCESS:   14742686	FORWARD:          0	MERGED:    4386735	TO_CACHE:   10355951

DTLB TOTAL     ACCESS:   10813680  HIT:   10390442  MISS:     423238  HIT %:    96.0861  MISS %:    3.91391   MPKI: 8.46476
DTLB LOAD TRANSLATION ACCESS:   10813680  HIT:   10390442  MISS:     423238  HIT %:    96.0861  MISS %:    3.91391   MPKI: 8.46476
DTLB PREFETCH  REQUESTED:          0  ISSUED:          0  USEFUL:          0  USELESS:          0
DTLB USEFUL LOAD PREFETCHES:          0 PREFETCH ISSUED TO LOWER LEVEL:          0  ACCURACY: -nan
DTLB TIMELY PREFETCHES:          0 LATE PREFETCHES: 0 DROPPED PREFETCHES: 0
DTLB PREFETCHES SAME FILL-ORIGIN LEVEL: 0 DIFFERENT FILL-ORIGIN LEVEL: 0
DTLB AVERAGE MISS LATENCY: 19.5928 cycles
DTLB RQ	ACCESS:   16049289	FORWARD:          0	MERGED:    5151656	TO_CACHE:   10897633

STLB TOTAL     ACCESS:    1472833  HIT:    1436943  MISS:      35890  HIT %:    97.5632  MISS %:     2.4368   MPKI: 0.7178
STLB LOAD TRANSLATION ACCESS:     433486  HIT:     398200  MISS:      35286  HIT %:    91.8599  MISS %:    8.14006   MPKI: 0.70572
STLB TRANSLATION FROM L1D PREFETCHER ACCESS:    1039347  HIT:    1038743  MISS:        604  HIT %:    99.9419  MISS %:  0.0581134   MPKI: 0.01208
STLB PREFETCH  REQUESTED:          0  ISSUED:          0  USEFUL:        414  USELESS:        172
STLB USEFUL LOAD PREFETCHES:        414 PREFETCH ISSUED TO LOWER LEVEL:          0  ACCURACY: inf
STLB TIMELY PREFETCHES:        414 LATE PREFETCHES: 0 DROPPED PREFETCHES: 0
STLB PREFETCHES SAME FILL-ORIGIN LEVEL: 0 DIFFERENT FILL-ORIGIN LEVEL: 0
STLB AVERAGE MISS LATENCY: 129.908 cycles
STLB RQ	ACCESS:    1504657	FORWARD:          0	MERGED:      31824	TO_CACHE:    1472833

STLB Hit, L1D data hit: 0
STLB Hit, L2C data hit: 0
STLB Hit, LLC data hit: 0
STLB Hit, LLC data miss: 0
STLB STLB hints to L2: 0
L1D TOTAL     ACCESS:   14096327  HIT:   12271954  MISS:    1824373  HIT %:    87.0578  MISS %:    12.9422   MPKI: 36.4875
L1D LOAD      ACCESS:    7365942  HIT:    6761333  MISS:     604609  HIT %:    91.7918  MISS %:    8.20817   MPKI: 12.0922
L1D RFO       ACCESS:    6219391  HIT:    5251880  MISS:     967511  HIT %:    84.4436  MISS %:    15.5564   MPKI: 19.3502
L1D PREFETCH  ACCESS:     510994  HIT:     258741  MISS:     252253  HIT %:    50.6348  MISS %:    49.3652   MPKI: 5.04506
L1D PREFETCH  REQUESTED:    1201491  ISSUED:    1201392  USEFUL:     233788  USELESS:      18463
L1D USEFUL LOAD PREFETCHES:     233788 PREFETCH ISSUED TO LOWER LEVEL:     336703  ACCURACY: 69.4345
L1D TIMELY PREFETCHES:     233788 LATE PREFETCHES: 84450 DROPPED PREFETCHES: 0
L1D PREFETCHES SAME FILL-ORIGIN LEVEL: 336703 DIFFERENT FILL-ORIGIN LEVEL: 0
L1D AVERAGE MISS LATENCY: 2.95834e+06 cycles
L1D RQ	ACCESS:   11030861	FORWARD:          0	MERGED:    3502250	TO_CACHE:    7407427
L1D WQ	ACCESS:    8736102	FORWARD:     121188	MERGED:      94240	TO_CACHE:    8641862
L1D PQ	ACCESS:     600698	FORWARD:          0	MERGED:          0	TO_CACHE:     600694

L1D UNIQUE REGIONS ACCESSED: 0
L1D REGIONS CONFLICTS: 0
L1D Cross Page Prefetch Requests: 0
L1D Same Page Prefetch Requests: 1756438
L1D ROI Sum of L1D PQ occupancy: 8940227
L1D PREFETCHES PUSHED FROM L2C: 0
L1I TOTAL     ACCESS:   14675916  HIT:   11506660  MISS:    3169256  HIT %:    78.4051  MISS %:    21.5949   MPKI: 63.3851
L1I LOAD      ACCESS:    9796447  HIT:    9780129  MISS:      16318  HIT %:    99.8334  MISS %:   0.166571   MPKI: 0.32636
L1I PREFETCH  ACCESS:    4879469  HIT:    1726531  MISS:    3152938  HIT %:    35.3836  MISS %:    64.6164   MPKI: 63.0588
L1I PREFETCH  REQUESTED:    5115232  ISSUED:    5103946  USEFUL:    2611108  USELESS:     541766
L1I USEFUL LOAD PREFETCHES:    2611108 PREFETCH ISSUED TO LOWER LEVEL:    3158533  ACCURACY: 82.6684
L1I TIMELY PREFETCHES:    2611108 LATE PREFETCHES: 5599 DROPPED PREFETCHES: 0
L1I PREFETCHES SAME FILL-ORIGIN LEVEL: 3158533 DIFFERENT FILL-ORIGIN LEVEL: 0
L1I AVERAGE MISS LATENCY: 125342 cycles
L1I RQ	ACCESS:   14087805	FORWARD:          0	MERGED:    4287709	TO_CACHE:    9800096
L1I PQ	ACCESS:    5103946	FORWARD:          0	MERGED:     161356	TO_CACHE:    4942590

BTB TOTAL     ACCESS:    5333738  HIT:    5067581  MISS:     266157  HIT %:    95.0099  MISS %:    4.99007   MPKI: 5.32314
BTB BRANCH_DIRECT_JUMP	ACCESS:     458651  HIT:     456812  MISS:       1839
BTB BRANCH_INDIRECT	ACCESS:      48282  HIT:      48106  MISS:        176
BTB BRANCH_CONDITIONAL	ACCESS:    3005654  HIT:    2999755  MISS:       5899
BTB BRANCH_DIRECT_CALL	ACCESS:     744228  HIT:     740447  MISS:       3781
BTB BRANCH_INDIRECT_CALL	ACCESS:     166336  HIT:     137435  MISS:      28901
BTB BRANCH_RETURN	ACCESS:     910587  HIT:     685026  MISS:     225561
BTB BRANCH_OTHER ACCESS:          0  HIT:          0  MISS:          0

L2C TOTAL     ACCESS:    6192979  HIT:    4385818  MISS:    1807161  HIT %:    70.8192  MISS %:    29.1808   MPKI: 36.1432
L2C LOAD      ACCESS:     530863  HIT:     170223  MISS:     360640  HIT %:    32.0653  MISS %:    67.9347   MPKI: 7.2128
L2C DATA LOAD MPKI: 7.1139
L2C INSTRUCTION LOAD MPKI: 0.0989
L2C RFO       ACCESS:     967498  HIT:      40475  MISS:     927023  HIT %:    4.18347  MISS %:    95.8165   MPKI: 18.5405
L2C PREFETCH  ACCESS:    3495239  HIT:    3046528  MISS:     448711  HIT %:    87.1622  MISS %:    12.8378   MPKI: 8.97422
L2C DATA PREFETCH MPKI: 5.96556
L2C INSTRUCTION PREFETCH MPKI: 3.00866
L2C WRITEBACK ACCESS:    1155990  HIT:    1111566  MISS:      44424  HIT %:    96.1571  MISS %:    3.84294   MPKI: 0.88848
L2C LOAD TRANSLATION ACCESS:      42459  HIT:      16796  MISS:      25663  HIT %:    39.5582  MISS %:    60.4418   MPKI: 0.51326
L2C TRANSLATION FROM L1D PREFETCHER ACCESS:        930  HIT:        230  MISS:        700  HIT %:    24.7312  MISS %:    75.2688   MPKI: 0.014
L2C PREFETCH  REQUESTED:          0  ISSUED:          0  USEFUL:       2704  USELESS:     446965
L2C USEFUL LOAD PREFETCHES:       2704 PREFETCH ISSUED TO LOWER LEVEL:     448711  ACCURACY: 0.602615
L2C TIMELY PREFETCHES:       2704 LATE PREFETCHES: 0 DROPPED PREFETCHES: 0
L2C PREFETCHES SAME FILL-ORIGIN LEVEL: 0 DIFFERENT FILL-ORIGIN LEVEL: 0
L2C AVERAGE MISS LATENCY: 179.075 cycles
L2C RQ	ACCESS:    1541778	FORWARD:          0	MERGED:          0	TO_CACHE:    1541750
L2C WQ	ACCESS:    1155991	FORWARD:         28	MERGED:          0	TO_CACHE:    1155991
L2C PQ	ACCESS:    3495236	FORWARD:          0	MERGED:          0	TO_CACHE:    3495236

L2C Instructions Evicting Data 139793
L2C Translations Evicting Data 23846
L2C Data Evicting Data 1420958
L2C Instructions Evicting Instructions 13359
L2C Translations Evicting Instructions 2187
L2C Data Evicting Instructions 136688
L2C Instructions Evicting Translations 2226
L2C Translations Evicting Translations 330
L2C Data Evicting Translations 23350
L2C Dense regions hint from L2: 0
PSCL5 TOTAL     ACCESS:      35890  HIT:      35890  MISS:          0  HIT %:        100  MISS %:          0   MPKI: 0
PSCL5 LOAD TRANSLATION ACCESS:      35286  HIT:      35286  MISS:          0  HIT %:        100  MISS %:          0   MPKI: 0
PSCL5 TRANSLATION FROM L1D PREFETCHER ACCESS:        604  HIT:        604  MISS:          0  HIT %:        100  MISS %:          0   MPKI: 0
PSCL5 PREFETCH  REQUESTED:          0  ISSUED:          0  USEFUL:          0  USELESS:          0
PSCL5 USEFUL LOAD PREFETCHES:          0 PREFETCH ISSUED TO LOWER LEVEL:          0  ACCURACY: -nan
PSCL5 TIMELY PREFETCHES:          0 LATE PREFETCHES: 0 DROPPED PREFETCHES: 0
PSCL5 PREFETCHES SAME FILL-ORIGIN LEVEL: 0 DIFFERENT FILL-ORIGIN LEVEL: 0

PSCL4 TOTAL     ACCESS:      33510  HIT:      33410  MISS:        100  HIT %:    99.7016  MISS %:   0.298418   MPKI: 0.002
PSCL4 LOAD TRANSLATION ACCESS:      32936  HIT:      32836  MISS:        100  HIT %:    99.6964  MISS %:   0.303619   MPKI: 0.002
PSCL4 TRANSLATION FROM L1D PREFETCHER ACCESS:        574  HIT:        574  MISS:          0  HIT %:        100  MISS %:          0   MPKI: 0
PSCL4 PREFETCH  REQUESTED:          0  ISSUED:          0  USEFUL:          0  USELESS:          0
PSCL4 USEFUL LOAD PREFETCHES:          0 PREFETCH ISSUED TO LOWER LEVEL:          0  ACCURACY: -nan
PSCL4 TIMELY PREFETCHES:          0 LATE PREFETCHES: 0 DROPPED PREFETCHES: 0
PSCL4 PREFETCHES SAME FILL-ORIGIN LEVEL: 0 DIFFERENT FILL-ORIGIN LEVEL: 0

PSCL3 TOTAL     ACCESS:      35869  HIT:      35769  MISS:        100  HIT %:    99.7212  MISS %:   0.278792   MPKI: 0.002
PSCL3 LOAD TRANSLATION ACCESS:      35295  HIT:      35195  MISS:        100  HIT %:    99.7167  MISS %:   0.283326   MPKI: 0.002
PSCL3 TRANSLATION FROM L1D PREFETCHER ACCESS:        574  HIT:        574  MISS:          0  HIT %:        100  MISS %:          0   MPKI: 0
PSCL3 PREFETCH  REQUESTED:          0  ISSUED:          0  USEFUL:          0  USELESS:          0
PSCL3 USEFUL LOAD PREFETCHES:          0 PREFETCH ISSUED TO LOWER LEVEL:          0  ACCURACY: -nan
PSCL3 TIMELY PREFETCHES:          0 LATE PREFETCHES: 0 DROPPED PREFETCHES: 0
PSCL3 PREFETCHES SAME FILL-ORIGIN LEVEL: 0 DIFFERENT FILL-ORIGIN LEVEL: 0

PSCL2 TOTAL     ACCESS:      35890  HIT:      28564  MISS:       7326  HIT %:    79.5876  MISS %:    20.4124   MPKI: 0.14652
PSCL2 LOAD TRANSLATION ACCESS:      35564  HIT:      28238  MISS:       7326  HIT %:    79.4005  MISS %:    20.5995   MPKI: 0.14652
PSCL2 TRANSLATION FROM L1D PREFETCHER ACCESS:        326  HIT:        326  MISS:          0  HIT %:        100  MISS %:          0   MPKI: 0
PSCL2 PREFETCH  REQUESTED:          0  ISSUED:          0  USEFUL:          0  USELESS:          0
PSCL2 USEFUL LOAD PREFETCHES:          0 PREFETCH ISSUED TO LOWER LEVEL:          0  ACCURACY: -nan
PSCL2 TIMELY PREFETCHES:          0 LATE PREFETCHES: 0 DROPPED PREFETCHES: 0
PSCL2 PREFETCHES SAME FILL-ORIGIN LEVEL: 0 DIFFERENT FILL-ORIGIN LEVEL: 0

LLC TOTAL     ACCESS:    2837492  HIT:    1445346  MISS:    1392146  HIT %:    50.9374  MISS %:    49.0626   MPKI: 27.8429
LLC LOAD      ACCESS:     360638  HIT:     272247  MISS:      88391  HIT %:    75.4904  MISS %:    24.5096   MPKI: 1.76782
LLC RFO       ACCESS:     927016  HIT:     204207  MISS:     722809  HIT %:    22.0284  MISS %:    77.9716   MPKI: 14.4562
LLC PREFETCH  ACCESS:     448711  HIT:     155945  MISS:     292766  HIT %:     34.754  MISS %:     65.246   MPKI: 5.85532
LLC WRITEBACK ACCESS:    1074764  HIT:     794840  MISS:     279924  HIT %:    73.9548  MISS %:    26.0452   MPKI: 5.59848
LLC LOAD TRANSLATION ACCESS:      25663  HIT:      17829  MISS:       7834  HIT %:    69.4736  MISS %:    30.5264   MPKI: 0.15668
LLC TRANSLATION FROM L1D PREFETCHER ACCESS:        700  HIT:        278  MISS:        422  HIT %:    39.7143  MISS %:    60.2857   MPKI: 0.00844
LLC PREFETCH  REQUESTED:          0  ISSUED:          0  USEFUL:       1136  USELESS:     297199
LLC USEFUL LOAD PREFETCHES:       1136 PREFETCH ISSUED TO LOWER LEVEL:     292766  ACCURACY: 0.388023
LLC TIMELY PREFETCHES:       1136 LATE PREFETCHES: 0 DROPPED PREFETCHES: 0
LLC PREFETCHES SAME FILL-ORIGIN LEVEL: 0 DIFFERENT FILL-ORIGIN LEVEL: 0
LLC AVERAGE MISS LATENCY: 192.743 cycles
LLC RQ	ACCESS:    1314026	FORWARD:          0	MERGED:          0	TO_CACHE:    1314017
LLC WQ	ACCESS:    1074765	FORWARD:          9	MERGED:          0	TO_CACHE:    1074765
LLC PQ	ACCESS:     448711	FORWARD:          0	MERGED:          0	TO_CACHE:     448711

LLC Dense regions hint to LLC: 0

RAW hits: 1367690
Loads Generated: 12398552
Loads sent to L1D: 11030861
Stores Generated: 8736102
Stores sent to L1D: 8736102
Major fault: 0 Minor fault: 22612
Allocated PAGES: 22612
I-Shadow cache 408 bytes
Touched + WorthPF tables 6144 bytes 
MMA filter 174 bytes 
FNL filter 272 bytes 
TOTAL PREFETCHER STORAGE SIZE: 25174 bytes
CPU 0 L1I next line prefetcher final stats

stream: 
stream:times selected: 3905849
stream:pref_filled: 541639
stream:pref_useful: 198932
stream:pref_late: 11898
stream:misses: 53516
stream:misses_by_poll: 0

CS: 
CS:times selected: 3185477
CS:pref_filled: 359185
CS:pref_useful: 345216
CS:pref_late: 74528
CS:misses: 87595
CS:misses_by_poll: 548

CPLX: 
CPLX:times selected: 709744
CPLX:pref_filled: 29594
CPLX:pref_useful: 1482
CPLX:pref_late: 498
CPLX:misses: 160255
CPLX:misses_by_poll: 4

NL_L1: 
NL:times selected: 3791
NL:pref_filled: 1237
NL:pref_useful: 56
NL:pref_late: 11
NL:misses: 1685
NL:misses_by_poll: 0

total selections: 7804861
total_filled: 252253
total_useful: 233788
total_late: 91288
total_polluted: 552
total_misses_after_warmup: 646095
conflicts: 2369266
Degree Incremented Times: 122295
Degree Decremented Times: 69575

L1 IP Table Write Accesses: 4870076
L1 IP Table Read Accesses: 2500810
L1 RST Write Accesses: 1945225
L1 RST Read Accesses: 3890450
L1 CSPT Write Accesses: 1945225
L1 CSPT Read Accesses: 2207880
L1 RR Filter Tag Write Accesses: 600797
L1 RR Filter Tag Read Accesses: 189061150
L1 IP Table Tag Write Accesses: 7407428
L1 IP Table Tag Read Accesses: 7407428
L1 RST Tag Write Accesses: 0
L1 RST Tag Read Accesses: 17685831
L1 RR Filter Write Accesses: 0
L1 RR Filter Read Accesses: 6114641
test: 413108

DRAM Statistics
 CHANNEL 0
 RQ ROW_BUFFER_HIT:     422962  ROW_BUFFER_MISS:     689122
 DBUS_CONGESTED:        440
 WQ ROW_BUFFER_HIT:     187029  ROW_BUFFER_MISS:     577798  FULL:       5248

 AVG_CONGESTED_CYCLE: 2
 All warmup complete: 2
Channel 0 Bank busy for read cycles: 0
Channel 0 Bank busy for write cycles: 0
Channel 0
Rank 0
0banks busy for read cycles: 28495784
0banks busy for write cycles: 46080
1banks busy for read cycles: 15784544
1banks busy for write cycles: 6812132
2banks busy for read cycles: 11740218
2banks busy for write cycles: 3000016
3banks busy for read cycles: 5439487
3banks busy for write cycles: 1583183
4banks busy for read cycles: 4417860
4banks busy for write cycles: 1128220
5banks busy for read cycles: 931167
5banks busy for write cycles: 943092
6banks busy for read cycles: 785922
6banks busy for write cycles: 925095
7banks busy for read cycles: 992321
7banks busy for write cycles: 1675681
8banks busy for read cycles: 4695850
8banks busy for write cycles: 11494103

CPU 0 Branch Prediction Accuracy: 99.7114% MPKI: 0.47678 Average ROB Occupancy at Mispredict: 93.8393
Branch types
NOT_BRANCH: 41740729 83.4815%
BRANCH_DIRECT_JUMP: 458651 0.917302%
BRANCH_INDIRECT: 48282 0.096564%
BRANCH_CONDITIONAL: 5930847 11.8617%
BRANCH_DIRECT_CALL: 744228 1.48846%
BRANCH_INDIRECT_CALL: 166336 0.332672%
BRANCH_RETURN: 910587 1.82117%
BRANCH_OTHER: 0 0%

DRAM PAGES: 1048576
Allocated PAGES: 22612
