Initialize SIGNATURE TABLE
ST_SET: 1
ST_WAY: 256
ST_TAG_BIT: 16
ST_TAG_MASK: ffff

Initialize PATTERN TABLE
PT_SET: 512
PT_WAY: 4
SIG_DELTA_BIT: 7
C_SIG_BIT: 4
C_DELTA_BIT: 4

Initialize PREFETCH FILTER
FILTER_SET: 1024

Initialize PERCEPTRON
PERC_ENTRIES: 4096
PERC_FEATURES: 9

*** ChampSim Multicore Out-of-Order Simulator ***

Warmup Instructions: 50000000
Simulation Instructions: 50000000
Number of CPUs: 1
LLC sets: 2048
LLC ways: 16
Off-chip DRAM Size: 4096 MB Channels: 1 Width: 64-bit Data Rate: 6400 MT/s
CPU 0 runs ../IPC-traces//server_010.champsimtrace.xz
.xz
NUM_OF_IPS_IN_CRITICAL_IP_TRAINING: 64
NUM_OF_CRITICAL_IP_TRAINING_TABLE_WAYS: 2
NUM_OF_CRITICAL_IP_TRAINING_TABLE_SETS: 32
WOBBLY_CRITICAL_IP_CACHE_SETS: 32
WOBBLY_CRITICAL_IP_CACHE_WAYS: 4
BTB has LRU replacement policy
ITLB has LRU replacement policy
DTLB has LRU replacement policy
STLB has LRU replacement policy
CPU 0 L1I next line prefetcher
L1I has LRU replacement policy
L1D has LRU replacement policy
Initialize SRRIP state for L2C
Initialize DRRIP state for LLC
Heartbeat CPU 0 instructions: 10000001 cycles: 2766268 heartbeat IPC: 3.61498 cumulative IPC: 3.61498 (Simulation time: 0 hr 3 min 19 sec) 
Heartbeat CPU 0 instructions: 20000003 cycles: 5523515 heartbeat IPC: 3.62681 cumulative IPC: 3.62088 (Simulation time: 0 hr 5 min 59 sec) 
Heartbeat CPU 0 instructions: 30000001 cycles: 8279995 heartbeat IPC: 3.62781 cumulative IPC: 3.62319 (Simulation time: 0 hr 8 min 20 sec) 
Heartbeat CPU 0 instructions: 40000000 cycles: 11037646 heartbeat IPC: 3.62627 cumulative IPC: 3.62396 (Simulation time: 0 hr 10 min 30 sec) 
Heartbeat CPU 0 instructions: 50000003 cycles: 13796207 heartbeat IPC: 3.62508 cumulative IPC: 3.62418 (Simulation time: 0 hr 12 min 33 sec) 

Warmup complete CPU 0 instructions: 50000003 cycles: 13796207 (Simulation time: 0 hr 12 min 33 sec) 

% increase in all ip prefetch 353.735
% increase in all ip prefetch 3.65028
Heartbeat CPU 0 instructions: 60000001 cycles: 27851088 heartbeat IPC: 0.711496 cumulative IPC: 0.711496 (Simulation time: 0 hr 15 min 6 sec) 
Heartbeat CPU 0 instructions: 70000000 cycles: 41979933 heartbeat IPC: 0.707772 cumulative IPC: 0.709629 (Simulation time: 0 hr 17 min 32 sec) 
Heartbeat CPU 0 instructions: 80000003 cycles: 56118765 heartbeat IPC: 0.707272 cumulative IPC: 0.708842 (Simulation time: 0 hr 19 min 56 sec) 
Heartbeat CPU 0 instructions: 90000002 cycles: 70006053 heartbeat IPC: 0.720083 cumulative IPC: 0.711619 (Simulation time: 0 hr 22 min 19 sec) 
Heartbeat CPU 0 instructions: 100000000 cycles: 97618391 heartbeat IPC: 0.362157 cumulative IPC: 0.596501 (Simulation time: 0 hr 25 min 33 sec) 
Finished CPU 0 instructions: 50000001 cycles: 83822205 cumulative IPC: 0.596501 (Simulation time: 0 hr 25 min 33 sec) 

ChampSim completed all CPUs

Region of Interest Statistics

CPU 0 cumulative IPC: 0.596501 instructions: 50000001 cycles: 83822205

CPU 0 Average Load ROB stall cycles: 2.7936e+07
CPU 0 Fraction of times ROB stalled by Loads: 47.3819
CPU 0 Percentage of Load stall cycles in Total stall cycles: 2.88615e+08
Issued all: 33930217
Issued LT all: 28147624
rob_not_full_when_issued_lt_all: 20908697
Issued LT one: 22878617
rob_not_full_when_issued_lt_one: 16144688
 Total stall cycles: 70271640
 Total load stall cycles: 202814305338610
CPU 0 NUM of IPS identified critical: 0
CPU 0 Num of Load IPs stalling ROB: 23919
Threshold modification factor: -1
Max PIST entries: 64
Min PIST entries: 0
Avg PIST entries: 31.68
Trouble in retire width: 0.934356
MaC = Marked as critical.
lt_50_percent_before_Mac: 0
gt_90_percent_before_Mac: 0
gt_75_percent_before_Mac: 0
gt_50_percent_before_Mac: 0
stall_proportion_bin_same_before_after: 0
stall_proportion_bin_lower_before_after: 0
stall_proportion_bin_upper_before_after: 0
average_stall_proportion_before: -nan
average_stall_proportion_after: -nan
Critical IP stalls, total frequency: 0
Non-critical IP stalls, total frequency: 3439910
Total Freq all stalling IPs: 3439910
stat_90_percent_critical_ip_stalls_freq: 3095966
stat_90_percent_non_critical_ip_stalls_freq: 343944
Critical_IP_ROB_Stalls_Bucket_0: 0
Non-critical_IP_ROB_Stalls_Bucket_0: 1209840
Critical_IP_ROB_Stalls_Bucket_1: 0
Non-critical_IP_ROB_Stalls_Bucket_1: 778637
Critical_IP_ROB_Stalls_Bucket_2: 0
Non-critical_IP_ROB_Stalls_Bucket_2: 370306
Critical_IP_ROB_Stalls_Bucket_3: 0
Non-critical_IP_ROB_Stalls_Bucket_3: 223584
Critical_IP_ROB_Stalls_Bucket_4: 0
Non-critical_IP_ROB_Stalls_Bucket_4: 173731
Critical_IP_ROB_Stalls_Bucket_5: 0
Non-critical_IP_ROB_Stalls_Bucket_5: 163985
Critical_IP_ROB_Stalls_Bucket_6: 0
Non-critical_IP_ROB_Stalls_Bucket_6: 519827
0 => IPs accounting for >50 percent of stalls, 1 => 55, 2 => 60, 3 => 65 and so on till 90.
percent50: 50.0345 num IPs:  68
percent55: 55.0777 num IPs: 99
percent60: 60.02 num IPs: 148
percent65: 65.0276 num IPs: 256
percent70: 70.0024 num IPs: 446
percent75: 75.0155 num IPs: 714
percent80: 80.0011 num IPs: 1151
percent85: 85.0003 num IPs: 2010
percent90: 90.0015 num IPs: 3685
Critical_ROB_Stalls_Percent_0_Bucket_0: 395109
Non-critical_ROB_Stalls_Percent_0_Bucket_0: 814731
Critical_ROB_Stalls_Percent_0_Bucket_1: 266414
Non-critical_ROB_Stalls_Percent_0_Bucket_1: 512223
Critical_ROB_Stalls_Percent_0_Bucket_2: 174561
Non-critical_ROB_Stalls_Percent_0_Bucket_2: 195745
Critical_ROB_Stalls_Percent_0_Bucket_3: 143921
Non-critical_ROB_Stalls_Percent_0_Bucket_3: 79663
Critical_ROB_Stalls_Percent_0_Bucket_4: 131548
Non-critical_ROB_Stalls_Percent_0_Bucket_4: 42183
Critical_ROB_Stalls_Percent_0_Bucket_5: 134088
Non-critical_ROB_Stalls_Percent_0_Bucket_5: 29897
Critical_ROB_Stalls_Percent_0_Bucket_6: 475502
Non-critical_ROB_Stalls_Percent_0_Bucket_6: 44325
Critical_ROB_Stalls_Percent_1_Bucket_0: 441775
Non-critical_ROB_Stalls_Percent_1_Bucket_0: 768065
Critical_ROB_Stalls_Percent_1_Bucket_1: 349670
Non-critical_ROB_Stalls_Percent_1_Bucket_1: 428967
Critical_ROB_Stalls_Percent_1_Bucket_2: 201142
Non-critical_ROB_Stalls_Percent_1_Bucket_2: 169164
Critical_ROB_Stalls_Percent_1_Bucket_3: 149048
Non-critical_ROB_Stalls_Percent_1_Bucket_3: 74536
Critical_ROB_Stalls_Percent_1_Bucket_4: 133551
Non-critical_ROB_Stalls_Percent_1_Bucket_4: 40180
Critical_ROB_Stalls_Percent_1_Bucket_5: 140207
Non-critical_ROB_Stalls_Percent_1_Bucket_5: 23778
Critical_ROB_Stalls_Percent_1_Bucket_6: 479230
Non-critical_ROB_Stalls_Percent_1_Bucket_6: 40597
Critical_ROB_Stalls_Percent_2_Bucket_0: 499223
Non-critical_ROB_Stalls_Percent_2_Bucket_0: 710617
Critical_ROB_Stalls_Percent_2_Bucket_1: 413407
Non-critical_ROB_Stalls_Percent_2_Bucket_1: 365230
Critical_ROB_Stalls_Percent_2_Bucket_2: 226269
Non-critical_ROB_Stalls_Percent_2_Bucket_2: 144037
Critical_ROB_Stalls_Percent_2_Bucket_3: 158707
Non-critical_ROB_Stalls_Percent_2_Bucket_3: 64877
Critical_ROB_Stalls_Percent_2_Bucket_4: 137982
Non-critical_ROB_Stalls_Percent_2_Bucket_4: 35749
Critical_ROB_Stalls_Percent_2_Bucket_5: 142225
Non-critical_ROB_Stalls_Percent_2_Bucket_5: 21760
Critical_ROB_Stalls_Percent_2_Bucket_6: 486821
Non-critical_ROB_Stalls_Percent_2_Bucket_6: 33006
Critical_ROB_Stalls_Percent_3_Bucket_0: 569693
Non-critical_ROB_Stalls_Percent_3_Bucket_0: 640147
Critical_ROB_Stalls_Percent_3_Bucket_1: 465514
Non-critical_ROB_Stalls_Percent_3_Bucket_1: 313123
Critical_ROB_Stalls_Percent_3_Bucket_2: 251570
Non-critical_ROB_Stalls_Percent_3_Bucket_2: 118736
Critical_ROB_Stalls_Percent_3_Bucket_3: 168142
Non-critical_ROB_Stalls_Percent_3_Bucket_3: 55442
Critical_ROB_Stalls_Percent_3_Bucket_4: 142845
Non-critical_ROB_Stalls_Percent_3_Bucket_4: 30886
Critical_ROB_Stalls_Percent_3_Bucket_5: 145660
Non-critical_ROB_Stalls_Percent_3_Bucket_5: 18325
Critical_ROB_Stalls_Percent_3_Bucket_6: 493466
Non-critical_ROB_Stalls_Percent_3_Bucket_6: 26361
Critical_ROB_Stalls_Percent_4_Bucket_0: 638501
Non-critical_ROB_Stalls_Percent_4_Bucket_0: 571339
Critical_ROB_Stalls_Percent_4_Bucket_1: 522153
Non-critical_ROB_Stalls_Percent_4_Bucket_1: 256484
Critical_ROB_Stalls_Percent_4_Bucket_2: 273749
Non-critical_ROB_Stalls_Percent_4_Bucket_2: 96557
Critical_ROB_Stalls_Percent_4_Bucket_3: 178025
Non-critical_ROB_Stalls_Percent_4_Bucket_3: 45559
Critical_ROB_Stalls_Percent_4_Bucket_4: 148001
Non-critical_ROB_Stalls_Percent_4_Bucket_4: 25730
Critical_ROB_Stalls_Percent_4_Bucket_5: 149270
Non-critical_ROB_Stalls_Percent_4_Bucket_5: 14715
Critical_ROB_Stalls_Percent_4_Bucket_6: 498322
Non-critical_ROB_Stalls_Percent_4_Bucket_6: 21505
Critical_ROB_Stalls_Percent_5_Bucket_0: 715321
Non-critical_ROB_Stalls_Percent_5_Bucket_0: 494519
Critical_ROB_Stalls_Percent_5_Bucket_1: 584539
Non-critical_ROB_Stalls_Percent_5_Bucket_1: 194098
Critical_ROB_Stalls_Percent_5_Bucket_2: 290071
Non-critical_ROB_Stalls_Percent_5_Bucket_2: 80235
Critical_ROB_Stalls_Percent_5_Bucket_3: 183938
Non-critical_ROB_Stalls_Percent_5_Bucket_3: 39646
Critical_ROB_Stalls_Percent_5_Bucket_4: 152584
Non-critical_ROB_Stalls_Percent_5_Bucket_4: 21147
Critical_ROB_Stalls_Percent_5_Bucket_5: 152533
Non-critical_ROB_Stalls_Percent_5_Bucket_5: 11452
Critical_ROB_Stalls_Percent_5_Bucket_6: 501479
Non-critical_ROB_Stalls_Percent_5_Bucket_6: 18348
Critical_ROB_Stalls_Percent_6_Bucket_0: 812769
Non-critical_ROB_Stalls_Percent_6_Bucket_0: 397071
Critical_ROB_Stalls_Percent_6_Bucket_1: 629382
Non-critical_ROB_Stalls_Percent_6_Bucket_1: 149255
Critical_ROB_Stalls_Percent_6_Bucket_2: 304551
Non-critical_ROB_Stalls_Percent_6_Bucket_2: 65755
Critical_ROB_Stalls_Percent_6_Bucket_3: 190534
Non-critical_ROB_Stalls_Percent_6_Bucket_3: 33050
Critical_ROB_Stalls_Percent_6_Bucket_4: 156135
Non-critical_ROB_Stalls_Percent_6_Bucket_4: 17596
Critical_ROB_Stalls_Percent_6_Bucket_5: 154670
Non-critical_ROB_Stalls_Percent_6_Bucket_5: 9315
Critical_ROB_Stalls_Percent_6_Bucket_6: 503925
Non-critical_ROB_Stalls_Percent_6_Bucket_6: 15902
Critical_ROB_Stalls_Percent_7_Bucket_0: 902034
Non-critical_ROB_Stalls_Percent_7_Bucket_0: 307806
Critical_ROB_Stalls_Percent_7_Bucket_1: 674721
Non-critical_ROB_Stalls_Percent_7_Bucket_1: 103916
Critical_ROB_Stalls_Percent_7_Bucket_2: 323013
Non-critical_ROB_Stalls_Percent_7_Bucket_2: 47293
Critical_ROB_Stalls_Percent_7_Bucket_3: 199086
Non-critical_ROB_Stalls_Percent_7_Bucket_3: 24498
Critical_ROB_Stalls_Percent_7_Bucket_4: 160803
Non-critical_ROB_Stalls_Percent_7_Bucket_4: 12928
Critical_ROB_Stalls_Percent_7_Bucket_5: 157320
Non-critical_ROB_Stalls_Percent_7_Bucket_5: 6665
Critical_ROB_Stalls_Percent_7_Bucket_6: 506960
Non-critical_ROB_Stalls_Percent_7_Bucket_6: 12867
Critical_ROB_Stalls_Percent_8_Bucket_0: 999157
Non-critical_ROB_Stalls_Percent_8_Bucket_0: 210683
Critical_ROB_Stalls_Percent_8_Bucket_1: 713682
Non-critical_ROB_Stalls_Percent_8_Bucket_1: 64955
Critical_ROB_Stalls_Percent_8_Bucket_2: 338786
Non-critical_ROB_Stalls_Percent_8_Bucket_2: 31520
Critical_ROB_Stalls_Percent_8_Bucket_3: 207141
Non-critical_ROB_Stalls_Percent_8_Bucket_3: 16443
Critical_ROB_Stalls_Percent_8_Bucket_4: 165904
Non-critical_ROB_Stalls_Percent_8_Bucket_4: 7827
Critical_ROB_Stalls_Percent_8_Bucket_5: 159585
Non-critical_ROB_Stalls_Percent_8_Bucket_5: 4400
Critical_ROB_Stalls_Percent_8_Bucket_6: 511711
Non-critical_ROB_Stalls_Percent_8_Bucket_6: 8116
Average ROB occupancy Load Stall Begin: 118.123
Average ROB occupancy Load Stall End: 127.123
Min ROB occupancy Load Stall Begin: 1
Max ROB occupancy Load Stall Begin: 352
Min ROB occupancy Load Stall End: 1
Max ROB occupancy Load Stall End: 352
Average ROB occupancy Critical Load Stall Begin: -nan
Average ROB occupancy Critical Load Stall End: -nan
Min ROB occupancy Critical Load Stall Begin: 400
Max ROB occupancy Critical Load Stall Begin: 0
Min ROB occupancy Critical Load Stall End: 400
Max ROB occupancy Critical Load Stall End: 0
 ROB Load Stall Begin Bucket Count 0: 1499495
 ROB Load Stall End Bucket Count 0: 1209840
 ROB Critical Load Stall Begin Bucket Count 0: 0
 ROB Critical Load Stall End Bucket Count 0: 0
 ROB Load Stall Begin Bucket Count 1: 601887
 ROB Load Stall End Bucket Count 1: 778637
 ROB Critical Load Stall Begin Bucket Count 1: 0
 ROB Critical Load Stall End Bucket Count 1: 0
 ROB Load Stall Begin Bucket Count 2: 311230
 ROB Load Stall End Bucket Count 2: 370306
 ROB Critical Load Stall Begin Bucket Count 2: 0
 ROB Critical Load Stall End Bucket Count 2: 0
 ROB Load Stall Begin Bucket Count 3: 196980
 ROB Load Stall End Bucket Count 3: 223584
 ROB Critical Load Stall Begin Bucket Count 3: 0
 ROB Critical Load Stall End Bucket Count 3: 0
 ROB Load Stall Begin Bucket Count 4: 166607
 ROB Load Stall End Bucket Count 4: 173731
 ROB Critical Load Stall Begin Bucket Count 4: 0
 ROB Critical Load Stall End Bucket Count 4: 0
 ROB Load Stall Begin Bucket Count 5: 157105
 ROB Load Stall End Bucket Count 5: 163985
 ROB Critical Load Stall Begin Bucket Count 5: 0
 ROB Critical Load Stall End Bucket Count 5: 0
 ROB Load Stall Begin Bucket Count 6: 506606
 ROB Load Stall End Bucket Count 6: 519827
 ROB Critical Load Stall Begin Bucket Count 6: 0
 ROB Critical Load Stall End Bucket Count 6: 0
PIST Tag Read Accesses: 2782104
PIST Read Accesses: 1391052
PIST Tag Write Accesses: 2782104
PIST Write Accesses: 1391052
Criticality detector called times: 2317318
Max global_stall_cycles_count: 3060995
Threshold Modified: 1 times, factor: -1
Sturdy critical IP cache stats: 
 Unused entries: 0
CIC Tag Read Accesses: 0
CIC Read Accesses: 0
CIC Tag Write Accesses: 0
CIC Write Accesses: 0
Wobbly critical IP cache stats: 
 Unused entries: 90
CIC Tag Read Accesses: 80652017
CIC Read Accesses: 0
CIC Tag Write Accesses: 124558
CIC Write Accesses: 0
ITLB TOTAL     ACCESS:    9531870  HIT:    9313152  MISS:     218718  HIT %:    97.7054  MISS %:     2.2946   MPKI: 4.37436
ITLB LOAD TRANSLATION ACCESS:    8394033  HIT:    8333226  MISS:      60807  HIT %:    99.2756  MISS %:   0.724407   MPKI: 1.21614
ITLB TRANSLATION FROM L1D PREFETCHER ACCESS:    1137837  HIT:     979926  MISS:     157911  HIT %:    86.1218  MISS %:    13.8782   MPKI: 3.15822
ITLB PREFETCH  REQUESTED:          0  ISSUED:          0  USEFUL:     128134  USELESS:      29775
ITLB USEFUL LOAD PREFETCHES:     128134 PREFETCH ISSUED TO LOWER LEVEL:          0  ACCURACY: inf
ITLB TIMELY PREFETCHES:     128134 LATE PREFETCHES: 781 DROPPED PREFETCHES: 12227
ITLB PREFETCHES SAME FILL-ORIGIN LEVEL: 0 DIFFERENT FILL-ORIGIN LEVEL: 0
ITLB AVERAGE MISS LATENCY: 163245 cycles
ITLB RQ	ACCESS:   12935608	FORWARD:          0	MERGED:    3365218	TO_CACHE:    9570390

DTLB TOTAL     ACCESS:   10015216  HIT:    8696875  MISS:    1318341  HIT %:    86.8366  MISS %:    13.1634   MPKI: 26.3668
DTLB LOAD TRANSLATION ACCESS:   10015216  HIT:    8696875  MISS:    1318341  HIT %:    86.8366  MISS %:    13.1634   MPKI: 26.3668
DTLB PREFETCH  REQUESTED:          0  ISSUED:          0  USEFUL:          0  USELESS:          0
DTLB USEFUL LOAD PREFETCHES:          0 PREFETCH ISSUED TO LOWER LEVEL:          0  ACCURACY: -nan
DTLB TIMELY PREFETCHES:          0 LATE PREFETCHES: 0 DROPPED PREFETCHES: 0
DTLB PREFETCHES SAME FILL-ORIGIN LEVEL: 0 DIFFERENT FILL-ORIGIN LEVEL: 0
DTLB AVERAGE MISS LATENCY: 11.6517 cycles
DTLB RQ	ACCESS:   13011948	FORWARD:          0	MERGED:    2957778	TO_CACHE:   10054170

STLB TOTAL     ACCESS:    1537058  HIT:    1429216  MISS:     107842  HIT %:    92.9839  MISS %:    7.01613   MPKI: 2.15684
STLB LOAD TRANSLATION ACCESS:    1378367  HIT:    1296320  MISS:      82047  HIT %:    94.0475  MISS %:    5.95248   MPKI: 1.64094
STLB TRANSLATION FROM L1D PREFETCHER ACCESS:     158691  HIT:     132896  MISS:      25795  HIT %:    83.7451  MISS %:    16.2549   MPKI: 0.5159
STLB PREFETCH  REQUESTED:          0  ISSUED:          0  USEFUL:      15190  USELESS:      10581
STLB USEFUL LOAD PREFETCHES:      15190 PREFETCH ISSUED TO LOWER LEVEL:          0  ACCURACY: inf
STLB TIMELY PREFETCHES:      15190 LATE PREFETCHES: 0 DROPPED PREFETCHES: 12227
STLB PREFETCHES SAME FILL-ORIGIN LEVEL: 0 DIFFERENT FILL-ORIGIN LEVEL: 0
STLB AVERAGE MISS LATENCY: 45.9538 cycles
STLB RQ	ACCESS:    1549285	FORWARD:          0	MERGED:          1	TO_CACHE:    1549284

STLB Hit, L1D data hit: 0
STLB Hit, L2C data hit: 0
STLB Hit, LLC data hit: 0
STLB Hit, LLC data miss: 0
STLB STLB hints to L2: 0
L1D TOTAL     ACCESS:   12865124  HIT:   11205150  MISS:    1659974  HIT %:    87.0971  MISS %:    12.9029   MPKI: 33.1995
L1D LOAD      ACCESS:    8118235  HIT:    6551087  MISS:    1567148  HIT %:     80.696  MISS %:     19.304   MPKI: 31.343
L1D RFO       ACCESS:    4746889  HIT:    4654063  MISS:      92826  HIT %:    98.0445  MISS %:    1.95551   MPKI: 1.85652
L1D PREFETCH  REQUESTED:          0  ISSUED:          0  USEFUL:          0  USELESS:          0
L1D USEFUL LOAD PREFETCHES:          0 PREFETCH ISSUED TO LOWER LEVEL:          0  ACCURACY: -nan
L1D TIMELY PREFETCHES:          0 LATE PREFETCHES: 0 DROPPED PREFETCHES: 0
L1D PREFETCHES SAME FILL-ORIGIN LEVEL: 0 DIFFERENT FILL-ORIGIN LEVEL: 0
L1D AVERAGE MISS LATENCY: 26.2497 cycles
L1D RQ	ACCESS:   11604613	FORWARD:          0	MERGED:    3370721	TO_CACHE:    8153337
L1D WQ	ACCESS:    4965307	FORWARD:      80555	MERGED:     106696	TO_CACHE:    4858611

L1D UNIQUE REGIONS ACCESSED: 0
L1D REGIONS CONFLICTS: 0
L1D Cross Page Prefetch Requests: 0
L1D Same Page Prefetch Requests: 0
L1D ROI Sum of L1D PQ occupancy: 0
L1D PREFETCHES PUSHED FROM L2C: 0
L1I TOTAL     ACCESS:   12777356  HIT:   10955851  MISS:    1821505  HIT %:    85.7443  MISS %:    14.2557   MPKI: 36.4301
L1I LOAD      ACCESS:   10143191  HIT:    9924298  MISS:     218893  HIT %:     97.842  MISS %:    2.15803   MPKI: 4.37786
L1I PREFETCH  ACCESS:    2634165  HIT:    1031553  MISS:    1602612  HIT %:    39.1605  MISS %:    60.8395   MPKI: 32.0522
L1I PREFETCH  REQUESTED:    2862473  ISSUED:    2854052  USEFUL:    1054440  USELESS:     548162
L1I USEFUL LOAD PREFETCHES:    1054440 PREFETCH ISSUED TO LOWER LEVEL:    1632169  ACCURACY: 64.6036
L1I TIMELY PREFETCHES:    1054440 LATE PREFETCHES: 29551 DROPPED PREFETCHES: 39822
L1I PREFETCHES SAME FILL-ORIGIN LEVEL: 1632169 DIFFERENT FILL-ORIGIN LEVEL: 0
L1I AVERAGE MISS LATENCY: 723175 cycles
L1I RQ	ACCESS:   14601309	FORWARD:          0	MERGED:    4434249	TO_CACHE:   10167060
L1I PQ	ACCESS:    2854052	FORWARD:          0	MERGED:      85504	TO_CACHE:    2768548

BTB TOTAL     ACCESS:    5599982  HIT:    4872063  MISS:     727919  HIT %:    87.0014  MISS %:    12.9986   MPKI: 14.5584
BTB BRANCH_DIRECT_JUMP	ACCESS:     449946  HIT:     393873  MISS:      56073
BTB BRANCH_INDIRECT	ACCESS:     140210  HIT:     110632  MISS:      29578
BTB BRANCH_CONDITIONAL	ACCESS:    3238717  HIT:    3009562  MISS:     229155
BTB BRANCH_DIRECT_CALL	ACCESS:     701578  HIT:     595974  MISS:     105604
BTB BRANCH_INDIRECT_CALL	ACCESS:     168971  HIT:     157981  MISS:      10990
BTB BRANCH_RETURN	ACCESS:     900560  HIT:     604041  MISS:     296519
BTB BRANCH_OTHER ACCESS:          0  HIT:          0  MISS:          0

L2C TOTAL     ACCESS:    4152000  HIT:    3084316  MISS:    1067684  HIT %:    74.2851  MISS %:    25.7149   MPKI: 21.3537
L2C LOAD      ACCESS:    1756469  HIT:    1397420  MISS:     359049  HIT %:    79.5585  MISS %:    20.4415   MPKI: 7.18098
L2C DATA LOAD MPKI: 5.6165
L2C INSTRUCTION LOAD MPKI: 1.56448
L2C RFO       ACCESS:      92825  HIT:      47205  MISS:      45620  HIT %:    50.8538  MISS %:    49.1462   MPKI: 0.9124
L2C PREFETCH  ACCESS:    1904452  HIT:    1317318  MISS:     587134  HIT %:    69.1704  MISS %:    30.8296   MPKI: 11.7427
L2C DATA PREFETCH MPKI: 0.21152
L2C INSTRUCTION PREFETCH MPKI: 11.5312
L2C WRITEBACK ACCESS:     239253  HIT:     219003  MISS:      20250  HIT %:    91.5362  MISS %:    8.46384   MPKI: 0.405
L2C LOAD TRANSLATION ACCESS:     108440  HIT:      62487  MISS:      45953  HIT %:    57.6236  MISS %:    42.3764   MPKI: 0.91906
L2C TRANSLATION FROM L1D PREFETCHER ACCESS:      50561  HIT:      40883  MISS:       9678  HIT %:    80.8588  MISS %:    19.1412   MPKI: 0.19356
L2C PREFETCH  REQUESTED:     276851  ISSUED:     276848  USEFUL:      21505  USELESS:     576298
L2C USEFUL LOAD PREFETCHES:      21505 PREFETCH ISSUED TO LOWER LEVEL:     590682  ACCURACY: 3.64071
L2C TIMELY PREFETCHES:      21505 LATE PREFETCHES: 700 DROPPED PREFETCHES: 0
L2C PREFETCHES SAME FILL-ORIGIN LEVEL: 11276 DIFFERENT FILL-ORIGIN LEVEL: 2848
L2C AVERAGE MISS LATENCY: 38.936 cycles
L2C RQ	ACCESS:    2008317	FORWARD:          0	MERGED:          0	TO_CACHE:    2008295
L2C WQ	ACCESS:     239253	FORWARD:         22	MERGED:          0	TO_CACHE:     239253
L2C PQ	ACCESS:    1909011	FORWARD:          0	MERGED:         77	TO_CACHE:    1908934

L2C Instructions Evicting Data 219336
L2C Translations Evicting Data 18549
L2C Data Evicting Data 111539
L2C Instructions Evicting Instructions 401890
L2C Translations Evicting Instructions 34090
L2C Data Evicting Instructions 207282
L2C Instructions Evicting Translations 33556
L2C Translations Evicting Translations 2992
L2C Data Evicting Translations 18200
L2C Dense regions hint from L2: 0
PSCL5 TOTAL     ACCESS:     120068  HIT:     120068  MISS:          0  HIT %:        100  MISS %:          0   MPKI: 0
PSCL5 LOAD TRANSLATION ACCESS:      82046  HIT:      82046  MISS:          0  HIT %:        100  MISS %:          0   MPKI: 0
PSCL5 TRANSLATION FROM L1D PREFETCHER ACCESS:      38022  HIT:      38022  MISS:          0  HIT %:        100  MISS %:          0   MPKI: 0
PSCL5 PREFETCH  REQUESTED:          0  ISSUED:          0  USEFUL:          0  USELESS:          0
PSCL5 USEFUL LOAD PREFETCHES:          0 PREFETCH ISSUED TO LOWER LEVEL:          0  ACCURACY: -nan
PSCL5 TIMELY PREFETCHES:          0 LATE PREFETCHES: 0 DROPPED PREFETCHES: 0
PSCL5 PREFETCHES SAME FILL-ORIGIN LEVEL: 0 DIFFERENT FILL-ORIGIN LEVEL: 0

PSCL4 TOTAL     ACCESS:     108836  HIT:     108527  MISS:        309  HIT %:    99.7161  MISS %:   0.283913   MPKI: 0.00618
PSCL4 LOAD TRANSLATION ACCESS:      75404  HIT:      75095  MISS:        309  HIT %:    99.5902  MISS %:   0.409793   MPKI: 0.00618
PSCL4 TRANSLATION FROM L1D PREFETCHER ACCESS:      33432  HIT:      33432  MISS:          0  HIT %:        100  MISS %:          0   MPKI: 0
PSCL4 PREFETCH  REQUESTED:          0  ISSUED:          0  USEFUL:          0  USELESS:          0
PSCL4 USEFUL LOAD PREFETCHES:          0 PREFETCH ISSUED TO LOWER LEVEL:          0  ACCURACY: -nan
PSCL4 TIMELY PREFETCHES:          0 LATE PREFETCHES: 0 DROPPED PREFETCHES: 0
PSCL4 PREFETCHES SAME FILL-ORIGIN LEVEL: 0 DIFFERENT FILL-ORIGIN LEVEL: 0

PSCL3 TOTAL     ACCESS:     117989  HIT:     117130  MISS:        859  HIT %:     99.272  MISS %:   0.728034   MPKI: 0.01718
PSCL3 LOAD TRANSLATION ACCESS:      81717  HIT:      80858  MISS:        859  HIT %:    98.9488  MISS %:    1.05119   MPKI: 0.01718
PSCL3 TRANSLATION FROM L1D PREFETCHER ACCESS:      36272  HIT:      36272  MISS:          0  HIT %:        100  MISS %:          0   MPKI: 0
PSCL3 PREFETCH  REQUESTED:          0  ISSUED:          0  USEFUL:          0  USELESS:          0
PSCL3 USEFUL LOAD PREFETCHES:          0 PREFETCH ISSUED TO LOWER LEVEL:          0  ACCURACY: -nan
PSCL3 TIMELY PREFETCHES:          0 LATE PREFETCHES: 0 DROPPED PREFETCHES: 0
PSCL3 PREFETCHES SAME FILL-ORIGIN LEVEL: 0 DIFFERENT FILL-ORIGIN LEVEL: 0

PSCL2 TOTAL     ACCESS:     111978  HIT:      83253  MISS:      28725  HIT %:    74.3476  MISS %:    25.6524   MPKI: 0.5745
PSCL2 LOAD TRANSLATION ACCESS:      85311  HIT:      56586  MISS:      28725  HIT %:    66.3291  MISS %:    33.6709   MPKI: 0.5745
PSCL2 TRANSLATION FROM L1D PREFETCHER ACCESS:      26667  HIT:      26667  MISS:          0  HIT %:        100  MISS %:          0   MPKI: 0
PSCL2 PREFETCH  REQUESTED:          0  ISSUED:          0  USEFUL:          0  USELESS:          0
PSCL2 USEFUL LOAD PREFETCHES:          0 PREFETCH ISSUED TO LOWER LEVEL:          0  ACCURACY: -nan
PSCL2 TIMELY PREFETCHES:          0 LATE PREFETCHES: 0 DROPPED PREFETCHES: 0
PSCL2 PREFETCHES SAME FILL-ORIGIN LEVEL: 0 DIFFERENT FILL-ORIGIN LEVEL: 0

LLC TOTAL     ACCESS:    1171161  HIT:    1105231  MISS:      65930  HIT %:    94.3705  MISS %:    5.62946   MPKI: 1.3186
LLC LOAD      ACCESS:     358361  HIT:     312228  MISS:      46133  HIT %:    87.1267  MISS %:    12.8733   MPKI: 0.92266
LLC RFO       ACCESS:      45608  HIT:      34954  MISS:      10654  HIT %:    76.6401  MISS %:    23.3599   MPKI: 0.21308
LLC PREFETCH  ACCESS:     590678  HIT:     583043  MISS:       7635  HIT %:    98.7074  MISS %:    1.29258   MPKI: 0.1527
LLC WRITEBACK ACCESS:     120883  HIT:     120442  MISS:        441  HIT %:    99.6352  MISS %:   0.364816   MPKI: 0.00882
LLC LOAD TRANSLATION ACCESS:      45953  HIT:      44921  MISS:       1032  HIT %:    97.7542  MISS %:    2.24577   MPKI: 0.02064
LLC TRANSLATION FROM L1D PREFETCHER ACCESS:       9678  HIT:       9643  MISS:         35  HIT %:    99.6384  MISS %:   0.361645   MPKI: 0.0007
LLC PREFETCH  REQUESTED:          0  ISSUED:          0  USEFUL:        905  USELESS:      16969
LLC USEFUL LOAD PREFETCHES:        905 PREFETCH ISSUED TO LOWER LEVEL:       7635  ACCURACY: 11.8533
LLC TIMELY PREFETCHES:        905 LATE PREFETCHES: 0 DROPPED PREFETCHES: 0
LLC PREFETCHES SAME FILL-ORIGIN LEVEL: 424 DIFFERENT FILL-ORIGIN LEVEL: 0
LLC AVERAGE MISS LATENCY: 154.531 cycles
LLC RQ	ACCESS:     459600	FORWARD:          0	MERGED:          0	TO_CACHE:     459600
LLC WQ	ACCESS:     120883	FORWARD:          0	MERGED:          0	TO_CACHE:     120883
LLC PQ	ACCESS:     590682	FORWARD:          0	MERGED:          1	TO_CACHE:     590681

LLC Dense regions hint to LLC: 0

RAW hits: 1003604
Loads Generated: 12608216
Loads sent to L1D: 11604613
Stores Generated: 4965302
Stores sent to L1D: 4965307
Major fault: 0 Minor fault: 5909
Allocated PAGES: 5909
I-Shadow cache 408 bytes
Touched + WorthPF tables 6144 bytes 
MMA filter 174 bytes 
FNL filter 272 bytes 
TOTAL PREFETCHER STORAGE SIZE: 25174 bytes
CPU 0 L1I next line prefetcher final stats
------------------
Depth Distribution
------------------
depth 0: 189358
depth 1: 4216081
depth 2: 270312
depth 3: 263676
depth 4: 616987
depth 5: 151203
depth 6: 0
depth 7: 0
depth 8: 0
depth 9: 0
depth 10: 0
depth 11: 0
depth 12: 0
depth 13: 0
depth 14: 0
depth 15: 0
depth 16: 0
depth 17: 0
depth 18: 0
depth 19: 0
depth 20: 0
depth 21: 0
depth 22: 0
depth 23: 0
depth 24: 0
depth 25: 0
depth 26: 0
depth 27: 0
depth 28: 0
depth 29: 0
Total: 5707617
------------------
ST read accesses: 2869775
ST write accesses: 325322
PT read accesses: 50462746
PT write accesses: 3898370
FILTER read accesses: 13896198
FILTER write accesses: 2621683
GHR read accesses: 4352612
GHR write accesses: 286263
PERC read accesses: 337024665
PERC write accesses: 1238261
GHR counter read accesses: 6390194
GHR counter write accesses: 6333265
GHR ip read accesses: 10626648
GHR ip write accesses: 12780388
ST tag read accesses: 1389887712
ST tag write accesses: 129326768

DRAM Statistics
 CHANNEL 0
 RQ ROW_BUFFER_HIT:      11819  ROW_BUFFER_MISS:      53670
 DBUS_CONGESTED:         33
 WQ ROW_BUFFER_HIT:       8716  ROW_BUFFER_MISS:      37108  FULL:          0

 AVG_CONGESTED_CYCLE: 4
 All warmup complete: 2
Channel 0 Bank busy for read cycles: 0
Channel 0 Bank busy for write cycles: 0
Channel 0
Rank 0
0banks busy for read cycles: 72730711
0banks busy for write cycles: 21510
1banks busy for read cycles: 5017430
1banks busy for write cycles: 2948946
2banks busy for read cycles: 1045723
2banks busy for write cycles: 868835
3banks busy for read cycles: 219647
3banks busy for write cycles: 283769
4banks busy for read cycles: 82685
4banks busy for write cycles: 143434
5banks busy for read cycles: 36725
5banks busy for write cycles: 93690
6banks busy for read cycles: 28656
6banks busy for write cycles: 76276
7banks busy for read cycles: 15207
7banks busy for write cycles: 80376
8banks busy for read cycles: 10366
8banks busy for write cycles: 118220

CPU 0 Branch Prediction Accuracy: 99.5528% MPKI: 0.89798 Average ROB Occupancy at Mispredict: 63.2586
Branch types
NOT_BRANCH: 39958758 79.9175%
BRANCH_DIRECT_JUMP: 449946 0.899892%
BRANCH_INDIRECT: 140210 0.28042%
BRANCH_CONDITIONAL: 7679656 15.3593%
BRANCH_DIRECT_CALL: 701578 1.40316%
BRANCH_INDIRECT_CALL: 168971 0.337942%
BRANCH_RETURN: 900560 1.80112%
BRANCH_OTHER: 0 0%

DRAM PAGES: 1048576
Allocated PAGES: 5909
