
*** ChampSim Multicore Out-of-Order Simulator ***

Warmup Instructions: 50000000
Simulation Instructions: 50000000
Number of CPUs: 1
LLC sets: 2048
LLC ways: 16
Off-chip DRAM Size: 4096 MB Channels: 1 Width: 64-bit Data Rate: 6400 MT/s
CPU 0 runs ../IPC-traces//server_017.champsimtrace.xz
.xz
BTB has LRU replacement policy
ITLB has LRU replacement policy
DTLB has LRU replacement policy
STLB has LRU replacement policy
CPU 0 L1I next line prefetcher
L1I has LRU replacement policy
IP Table Entries: 64
L1D has LRU replacement policy
Initialize SRRIP state for L2C
Initialize DRRIP state for LLC
Heartbeat CPU 0 instructions: 10000000 cycles: 3174570 heartbeat IPC: 3.15003 cumulative IPC: 3.15003 (Simulation time: 0 hr 3 min 25 sec) 
Heartbeat CPU 0 instructions: 20000000 cycles: 6334918 heartbeat IPC: 3.16421 cumulative IPC: 3.1571 (Simulation time: 0 hr 6 min 27 sec) 
Heartbeat CPU 0 instructions: 30000002 cycles: 9503952 heartbeat IPC: 3.15554 cumulative IPC: 3.15658 (Simulation time: 0 hr 9 min 24 sec) 
Heartbeat CPU 0 instructions: 40000000 cycles: 12670844 heartbeat IPC: 3.15767 cumulative IPC: 3.15685 (Simulation time: 0 hr 11 min 56 sec) 
Heartbeat CPU 0 instructions: 50000000 cycles: 15856282 heartbeat IPC: 3.13929 cumulative IPC: 3.15332 (Simulation time: 0 hr 14 min 8 sec) 

Warmup complete CPU 0 instructions: 50000004 cycles: 15856283 (Simulation time: 0 hr 14 min 8 sec) 

Heartbeat CPU 0 instructions: 60000000 cycles: 34819121 heartbeat IPC: 0.527347 cumulative IPC: 0.527347 (Simulation time: 0 hr 17 min 46 sec) 
Heartbeat CPU 0 instructions: 70000000 cycles: 53710976 heartbeat IPC: 0.529329 cumulative IPC: 0.528336 (Simulation time: 0 hr 21 min 27 sec) 
Heartbeat CPU 0 instructions: 80000000 cycles: 72591375 heartbeat IPC: 0.52965 cumulative IPC: 0.528773 (Simulation time: 0 hr 24 min 54 sec) 
Heartbeat CPU 0 instructions: 90000002 cycles: 98015709 heartbeat IPC: 0.393324 cumulative IPC: 0.486858 (Simulation time: 0 hr 30 min 27 sec) 
Heartbeat CPU 0 instructions: 100000003 cycles: 121074472 heartbeat IPC: 0.433675 cumulative IPC: 0.475203 (Simulation time: 0 hr 35 min 35 sec) 
Finished CPU 0 instructions: 50000003 cycles: 105218206 cumulative IPC: 0.475203 (Simulation time: 0 hr 35 min 35 sec) 

ChampSim completed all CPUs

Region of Interest Statistics

CPU 0 cumulative IPC: 0.475203 instructions: 50000003 cycles: 105218206

CPU 0 Average Load ROB stall cycles: 2.97193e+07
CPU 0 Fraction of times ROB stalled by Loads: 45.6288
CPU 0 Percentage of Load stall cycles in Total stall cycles: 2.36348e+08
Issued all: 46417667
Issued LT all: 40996552
rob_not_full_when_issued_lt_all: 17186399
Issued LT one: 35387414
rob_not_full_when_issued_lt_one: 13247449
FVP critical_dynamic_instances_0: 3097679
FVP unique_critical_ips_0: 2924
 Total stall cycles: 89034360
 Total load stall cycles: 210430796662910
Unique Load IPs: 6875
CPU 0 NUM of IPS identified critical: 0
CPU 0 Num of Load IPs stalling ROB: 0
Threshold modification factor: 0
Trouble in retire width: -nan
MaC = Marked as critical.
lt_50_percent_before_Mac: 0
gt_90_percent_before_Mac: 0
gt_75_percent_before_Mac: 0
gt_50_percent_before_Mac: 0
stall_proportion_bin_same_before_after: 0
stall_proportion_bin_lower_before_after: 0
stall_proportion_bin_upper_before_after: 0
average_stall_proportion_before: -nan
average_stall_proportion_after: -nan
Critical IP stalls, total frequency: 0
Non-critical IP stalls, total frequency: 0
Total Freq all stalling IPs: 0
Critical_IP_Detector_Accuracy_70: 0.000341997
Critical_IP_Detector_Accuracy_80: 0.000341997
Critical_IP_Detector_Accuracy_90: 0.000341997
Critical_IP_Detector_Coverage_70: 1
Critical_IP_Detector_Coverage_80: 1
Critical_IP_Detector_Coverage_90: 1
stat_90_percent_critical_ip_stalls_freq: 259263
stat_90_percent_non_critical_ip_stalls_freq: 18446744073709292353
AVERAGE_ROB_Occupancy_90_Percent_Critical_IP_Stalls: 312.104
AVERAGE_ROB_Occupancy_90_Percent_Non_Critical_IP_Stalls: 2.88254e-11
Critical_IP_ROB_Stalls_Bucket_0: 0
Non-critical_IP_ROB_Stalls_Bucket_0: 465869
Critical_IP_ROB_Stalls_Bucket_1: 0
Non-critical_IP_ROB_Stalls_Bucket_1: 595086
Critical_IP_ROB_Stalls_Bucket_2: 0
Non-critical_IP_ROB_Stalls_Bucket_2: 485573
Critical_IP_ROB_Stalls_Bucket_3: 0
Non-critical_IP_ROB_Stalls_Bucket_3: 330034
Critical_IP_ROB_Stalls_Bucket_4: 0
Non-critical_IP_ROB_Stalls_Bucket_4: 183217
Critical_IP_ROB_Stalls_Bucket_5: 0
Non-critical_IP_ROB_Stalls_Bucket_5: 166847
Critical_IP_ROB_Stalls_Bucket_6: 0
Non-critical_IP_ROB_Stalls_Bucket_6: 1004169
0 => IPs accounting for >50 percent of stalls, 1 => 55, 2 => 60, 3 => 65 and so on till 90.
percent50: inf num IPs:  1
percent55: inf num IPs: 1
percent60: inf num IPs: 1
percent65: inf num IPs: 1
percent70: inf num IPs: 1
percent75: inf num IPs: 1
percent80: inf num IPs: 1
percent85: inf num IPs: 1
percent90: inf num IPs: 1
Critical_ROB_Stalls_Percent_0_Bucket_0: 658
Non-critical_ROB_Stalls_Percent_0_Bucket_0: 465211
Critical_ROB_Stalls_Percent_0_Bucket_1: 3372
Non-critical_ROB_Stalls_Percent_0_Bucket_1: 591714
Critical_ROB_Stalls_Percent_0_Bucket_2: 12172
Non-critical_ROB_Stalls_Percent_0_Bucket_2: 473401
Critical_ROB_Stalls_Percent_0_Bucket_3: 17936
Non-critical_ROB_Stalls_Percent_0_Bucket_3: 312098
Critical_ROB_Stalls_Percent_0_Bucket_4: 15397
Non-critical_ROB_Stalls_Percent_0_Bucket_4: 167820
Critical_ROB_Stalls_Percent_0_Bucket_5: 13794
Non-critical_ROB_Stalls_Percent_0_Bucket_5: 153053
Critical_ROB_Stalls_Percent_0_Bucket_6: 195934
Non-critical_ROB_Stalls_Percent_0_Bucket_6: 808235
Critical_ROB_Stalls_Percent_1_Bucket_0: 658
Non-critical_ROB_Stalls_Percent_1_Bucket_0: 465211
Critical_ROB_Stalls_Percent_1_Bucket_1: 3372
Non-critical_ROB_Stalls_Percent_1_Bucket_1: 591714
Critical_ROB_Stalls_Percent_1_Bucket_2: 12172
Non-critical_ROB_Stalls_Percent_1_Bucket_2: 473401
Critical_ROB_Stalls_Percent_1_Bucket_3: 17936
Non-critical_ROB_Stalls_Percent_1_Bucket_3: 312098
Critical_ROB_Stalls_Percent_1_Bucket_4: 15397
Non-critical_ROB_Stalls_Percent_1_Bucket_4: 167820
Critical_ROB_Stalls_Percent_1_Bucket_5: 13794
Non-critical_ROB_Stalls_Percent_1_Bucket_5: 153053
Critical_ROB_Stalls_Percent_1_Bucket_6: 195934
Non-critical_ROB_Stalls_Percent_1_Bucket_6: 808235
Critical_ROB_Stalls_Percent_2_Bucket_0: 658
Non-critical_ROB_Stalls_Percent_2_Bucket_0: 465211
Critical_ROB_Stalls_Percent_2_Bucket_1: 3372
Non-critical_ROB_Stalls_Percent_2_Bucket_1: 591714
Critical_ROB_Stalls_Percent_2_Bucket_2: 12172
Non-critical_ROB_Stalls_Percent_2_Bucket_2: 473401
Critical_ROB_Stalls_Percent_2_Bucket_3: 17936
Non-critical_ROB_Stalls_Percent_2_Bucket_3: 312098
Critical_ROB_Stalls_Percent_2_Bucket_4: 15397
Non-critical_ROB_Stalls_Percent_2_Bucket_4: 167820
Critical_ROB_Stalls_Percent_2_Bucket_5: 13794
Non-critical_ROB_Stalls_Percent_2_Bucket_5: 153053
Critical_ROB_Stalls_Percent_2_Bucket_6: 195934
Non-critical_ROB_Stalls_Percent_2_Bucket_6: 808235
Critical_ROB_Stalls_Percent_3_Bucket_0: 658
Non-critical_ROB_Stalls_Percent_3_Bucket_0: 465211
Critical_ROB_Stalls_Percent_3_Bucket_1: 3372
Non-critical_ROB_Stalls_Percent_3_Bucket_1: 591714
Critical_ROB_Stalls_Percent_3_Bucket_2: 12172
Non-critical_ROB_Stalls_Percent_3_Bucket_2: 473401
Critical_ROB_Stalls_Percent_3_Bucket_3: 17936
Non-critical_ROB_Stalls_Percent_3_Bucket_3: 312098
Critical_ROB_Stalls_Percent_3_Bucket_4: 15397
Non-critical_ROB_Stalls_Percent_3_Bucket_4: 167820
Critical_ROB_Stalls_Percent_3_Bucket_5: 13794
Non-critical_ROB_Stalls_Percent_3_Bucket_5: 153053
Critical_ROB_Stalls_Percent_3_Bucket_6: 195934
Non-critical_ROB_Stalls_Percent_3_Bucket_6: 808235
Critical_ROB_Stalls_Percent_4_Bucket_0: 658
Non-critical_ROB_Stalls_Percent_4_Bucket_0: 465211
Critical_ROB_Stalls_Percent_4_Bucket_1: 3372
Non-critical_ROB_Stalls_Percent_4_Bucket_1: 591714
Critical_ROB_Stalls_Percent_4_Bucket_2: 12172
Non-critical_ROB_Stalls_Percent_4_Bucket_2: 473401
Critical_ROB_Stalls_Percent_4_Bucket_3: 17936
Non-critical_ROB_Stalls_Percent_4_Bucket_3: 312098
Critical_ROB_Stalls_Percent_4_Bucket_4: 15397
Non-critical_ROB_Stalls_Percent_4_Bucket_4: 167820
Critical_ROB_Stalls_Percent_4_Bucket_5: 13794
Non-critical_ROB_Stalls_Percent_4_Bucket_5: 153053
Critical_ROB_Stalls_Percent_4_Bucket_6: 195934
Non-critical_ROB_Stalls_Percent_4_Bucket_6: 808235
Critical_ROB_Stalls_Percent_5_Bucket_0: 658
Non-critical_ROB_Stalls_Percent_5_Bucket_0: 465211
Critical_ROB_Stalls_Percent_5_Bucket_1: 3372
Non-critical_ROB_Stalls_Percent_5_Bucket_1: 591714
Critical_ROB_Stalls_Percent_5_Bucket_2: 12172
Non-critical_ROB_Stalls_Percent_5_Bucket_2: 473401
Critical_ROB_Stalls_Percent_5_Bucket_3: 17936
Non-critical_ROB_Stalls_Percent_5_Bucket_3: 312098
Critical_ROB_Stalls_Percent_5_Bucket_4: 15397
Non-critical_ROB_Stalls_Percent_5_Bucket_4: 167820
Critical_ROB_Stalls_Percent_5_Bucket_5: 13794
Non-critical_ROB_Stalls_Percent_5_Bucket_5: 153053
Critical_ROB_Stalls_Percent_5_Bucket_6: 195934
Non-critical_ROB_Stalls_Percent_5_Bucket_6: 808235
Critical_ROB_Stalls_Percent_6_Bucket_0: 658
Non-critical_ROB_Stalls_Percent_6_Bucket_0: 465211
Critical_ROB_Stalls_Percent_6_Bucket_1: 3372
Non-critical_ROB_Stalls_Percent_6_Bucket_1: 591714
Critical_ROB_Stalls_Percent_6_Bucket_2: 12172
Non-critical_ROB_Stalls_Percent_6_Bucket_2: 473401
Critical_ROB_Stalls_Percent_6_Bucket_3: 17936
Non-critical_ROB_Stalls_Percent_6_Bucket_3: 312098
Critical_ROB_Stalls_Percent_6_Bucket_4: 15397
Non-critical_ROB_Stalls_Percent_6_Bucket_4: 167820
Critical_ROB_Stalls_Percent_6_Bucket_5: 13794
Non-critical_ROB_Stalls_Percent_6_Bucket_5: 153053
Critical_ROB_Stalls_Percent_6_Bucket_6: 195934
Non-critical_ROB_Stalls_Percent_6_Bucket_6: 808235
Critical_ROB_Stalls_Percent_7_Bucket_0: 658
Non-critical_ROB_Stalls_Percent_7_Bucket_0: 465211
Critical_ROB_Stalls_Percent_7_Bucket_1: 3372
Non-critical_ROB_Stalls_Percent_7_Bucket_1: 591714
Critical_ROB_Stalls_Percent_7_Bucket_2: 12172
Non-critical_ROB_Stalls_Percent_7_Bucket_2: 473401
Critical_ROB_Stalls_Percent_7_Bucket_3: 17936
Non-critical_ROB_Stalls_Percent_7_Bucket_3: 312098
Critical_ROB_Stalls_Percent_7_Bucket_4: 15397
Non-critical_ROB_Stalls_Percent_7_Bucket_4: 167820
Critical_ROB_Stalls_Percent_7_Bucket_5: 13794
Non-critical_ROB_Stalls_Percent_7_Bucket_5: 153053
Critical_ROB_Stalls_Percent_7_Bucket_6: 195934
Non-critical_ROB_Stalls_Percent_7_Bucket_6: 808235
Critical_ROB_Stalls_Percent_8_Bucket_0: 658
Non-critical_ROB_Stalls_Percent_8_Bucket_0: 465211
Critical_ROB_Stalls_Percent_8_Bucket_1: 3372
Non-critical_ROB_Stalls_Percent_8_Bucket_1: 591714
Critical_ROB_Stalls_Percent_8_Bucket_2: 12172
Non-critical_ROB_Stalls_Percent_8_Bucket_2: 473401
Critical_ROB_Stalls_Percent_8_Bucket_3: 17936
Non-critical_ROB_Stalls_Percent_8_Bucket_3: 312098
Critical_ROB_Stalls_Percent_8_Bucket_4: 15397
Non-critical_ROB_Stalls_Percent_8_Bucket_4: 167820
Critical_ROB_Stalls_Percent_8_Bucket_5: 13794
Non-critical_ROB_Stalls_Percent_8_Bucket_5: 153053
Critical_ROB_Stalls_Percent_8_Bucket_6: 195934
Non-critical_ROB_Stalls_Percent_8_Bucket_6: 808235
Average ROB occupancy Load Stall Begin: 180.555
Average ROB occupancy Load Stall End: 189.629
Min ROB occupancy Load Stall Begin: 1
Max ROB occupancy Load Stall Begin: 352
Min ROB occupancy Load Stall End: 1
Max ROB occupancy Load Stall End: 352
Average ROB occupancy Critical Load Stall Begin: -nan
Average ROB occupancy Critical Load Stall End: -nan
Min ROB occupancy Critical Load Stall Begin: 400
Max ROB occupancy Critical Load Stall Begin: 0
Min ROB occupancy Critical Load Stall End: 400
Max ROB occupancy Critical Load Stall End: 0
 ROB Load Stall Begin Bucket Count 0: 659215
 ROB Load Stall End Bucket Count 0: 465869
 ROB Critical Load Stall Begin Bucket Count 0: 0
 ROB Critical Load Stall End Bucket Count 0: 0
 ROB Load Stall Begin Bucket Count 1: 550205
 ROB Load Stall End Bucket Count 1: 595086
 ROB Critical Load Stall Begin Bucket Count 1: 0
 ROB Critical Load Stall End Bucket Count 1: 0
 ROB Load Stall Begin Bucket Count 2: 439149
 ROB Load Stall End Bucket Count 2: 485573
 ROB Critical Load Stall Begin Bucket Count 2: 0
 ROB Critical Load Stall End Bucket Count 2: 0
 ROB Load Stall Begin Bucket Count 3: 275355
 ROB Load Stall End Bucket Count 3: 330034
 ROB Critical Load Stall Begin Bucket Count 3: 0
 ROB Critical Load Stall End Bucket Count 3: 0
 ROB Load Stall Begin Bucket Count 4: 170593
 ROB Load Stall End Bucket Count 4: 183217
 ROB Critical Load Stall Begin Bucket Count 4: 0
 ROB Critical Load Stall End Bucket Count 4: 0
 ROB Load Stall Begin Bucket Count 5: 161442
 ROB Load Stall End Bucket Count 5: 166847
 ROB Critical Load Stall Begin Bucket Count 5: 0
 ROB Critical Load Stall End Bucket Count 5: 0
 ROB Load Stall Begin Bucket Count 6: 974836
 ROB Load Stall End Bucket Count 6: 1004169
 ROB Critical Load Stall Begin Bucket Count 6: 0
 ROB Critical Load Stall End Bucket Count 6: 0
PIST Tag Read Accesses: 0
PIST Read Accesses: 0
PIST Tag Write Accesses: 0
PIST Write Accesses: 0
Criticality detector called times: 0
Max global_stall_cycles_count: 0
Threshold Modified: 0 times, factor: 0
ITLB TOTAL     ACCESS:    9992163  HIT:    9553662  MISS:     438501  HIT %:    95.6116  MISS %:    4.38845   MPKI: 8.77002
ITLB LOAD TRANSLATION ACCESS:    8274085  HIT:    8262285  MISS:      11800  HIT %:    99.8574  MISS %:   0.142614   MPKI: 0.236
ITLB TRANSLATION FROM L1D PREFETCHER ACCESS:    1718078  HIT:    1291377  MISS:     426701  HIT %:     75.164  MISS %:     24.836   MPKI: 8.53402
ITLB PREFETCH  REQUESTED:          0  ISSUED:          0  USEFUL:     376848  USELESS:      49849
ITLB USEFUL LOAD PREFETCHES:     376848 PREFETCH ISSUED TO LOWER LEVEL:          0  ACCURACY: inf
ITLB TIMELY PREFETCHES:     376848 LATE PREFETCHES: 348 DROPPED PREFETCHES: 89
ITLB PREFETCHES SAME FILL-ORIGIN LEVEL: 0 DIFFERENT FILL-ORIGIN LEVEL: 0
ITLB AVERAGE MISS LATENCY: 48271.9 cycles
ITLB RQ	ACCESS:   14112910	FORWARD:          0	MERGED:    4065156	TO_CACHE:   10047754

DTLB TOTAL     ACCESS:   10625497  HIT:   10185508  MISS:     439989  HIT %:    95.8591  MISS %:    4.14088   MPKI: 8.79978
DTLB LOAD TRANSLATION ACCESS:   10625497  HIT:   10185508  MISS:     439989  HIT %:    95.8591  MISS %:    4.14088   MPKI: 8.79978
DTLB PREFETCH  REQUESTED:          0  ISSUED:          0  USEFUL:          0  USELESS:          0
DTLB USEFUL LOAD PREFETCHES:          0 PREFETCH ISSUED TO LOWER LEVEL:          0  ACCURACY: -nan
DTLB TIMELY PREFETCHES:          0 LATE PREFETCHES: 0 DROPPED PREFETCHES: 0
DTLB PREFETCHES SAME FILL-ORIGIN LEVEL: 0 DIFFERENT FILL-ORIGIN LEVEL: 0
DTLB AVERAGE MISS LATENCY: 25.3599 cycles
DTLB RQ	ACCESS:   15438040	FORWARD:          0	MERGED:    4735297	TO_CACHE:   10702743

STLB TOTAL     ACCESS:    1510234  HIT:    1446835  MISS:      63399  HIT %:     95.802  MISS %:    4.19796   MPKI: 1.26798
STLB LOAD TRANSLATION ACCESS:     451441  HIT:     389024  MISS:      62417  HIT %:    86.1738  MISS %:    13.8262   MPKI: 1.24834
STLB TRANSLATION FROM L1D PREFETCHER ACCESS:    1058793  HIT:    1057811  MISS:        982  HIT %:    99.9073  MISS %:  0.0927471   MPKI: 0.01964
STLB PREFETCH  REQUESTED:          0  ISSUED:          0  USEFUL:        737  USELESS:        246
STLB USEFUL LOAD PREFETCHES:        737 PREFETCH ISSUED TO LOWER LEVEL:          0  ACCURACY: inf
STLB TIMELY PREFETCHES:        737 LATE PREFETCHES: 0 DROPPED PREFETCHES: 89
STLB PREFETCHES SAME FILL-ORIGIN LEVEL: 0 DIFFERENT FILL-ORIGIN LEVEL: 0
STLB AVERAGE MISS LATENCY: 118.05 cycles
STLB RQ	ACCESS:    2138344	FORWARD:          0	MERGED:     628021	TO_CACHE:    1510323

STLB Hit, L1D data hit: 0
STLB Hit, L2C data hit: 0
STLB Hit, LLC data hit: 0
STLB Hit, LLC data miss: 0
STLB STLB hints to L2: 0
L1D TOTAL     ACCESS:   14391679  HIT:   12093904  MISS:    2297775  HIT %:     84.034  MISS %:     15.966   MPKI: 45.9555
L1D LOAD      ACCESS:    7324484  HIT:    6732109  MISS:     592375  HIT %:    91.9124  MISS %:     8.0876   MPKI: 11.8475
L1D RFO       ACCESS:    5832617  HIT:    4962632  MISS:     869985  HIT %:    85.0841  MISS %:    14.9159   MPKI: 17.3997
L1D PREFETCH  ACCESS:    1234578  HIT:     399163  MISS:     835415  HIT %:    32.3319  MISS %:    67.6681   MPKI: 16.7083
L1D PREFETCH  REQUESTED:    2538181  ISSUED:    2519545  USEFUL:     310360  USELESS:     524981
L1D USEFUL LOAD PREFETCHES:     310360 PREFETCH ISSUED TO LOWER LEVEL:     852098  ACCURACY: 36.423
L1D TIMELY PREFETCHES:     310360 LATE PREFETCHES: 10272 DROPPED PREFETCHES: 0
L1D PREFETCHES SAME FILL-ORIGIN LEVEL: 852098 DIFFERENT FILL-ORIGIN LEVEL: 0
L1D AVERAGE MISS LATENCY: 363289 cycles
L1D RQ	ACCESS:   10783147	FORWARD:          0	MERGED:    3314168	TO_CACHE:    7360195
L1D WQ	ACCESS:    8175288	FORWARD:     108797	MERGED:      97443	TO_CACHE:    8077845
L1D PQ	ACCESS:    1259780	FORWARD:          0	MERGED:          2	TO_CACHE:    1259765

L1D UNIQUE REGIONS ACCESSED: 0
L1D REGIONS CONFLICTS: 0
L1D Cross Page Prefetch Requests: 0
L1D Same Page Prefetch Requests: 1674045
L1D ROI Sum of L1D PQ occupancy: 25855859
L1D PREFETCHES PUSHED FROM L2C: 0
L1I TOTAL     ACCESS:   14046453  HIT:   11210521  MISS:    2835932  HIT %:    79.8103  MISS %:    20.1897   MPKI: 56.7186
L1I LOAD      ACCESS:    9639803  HIT:    9620252  MISS:      19551  HIT %:    99.7972  MISS %:   0.202815   MPKI: 0.39102
L1I PREFETCH  ACCESS:    4406650  HIT:    1590269  MISS:    2816381  HIT %:    36.0879  MISS %:    63.9121   MPKI: 56.3276
L1I PREFETCH  REQUESTED:    4637763  ISSUED:    4632391  USEFUL:    2347561  USELESS:     468802
L1I USEFUL LOAD PREFETCHES:    2347561 PREFETCH ISSUED TO LOWER LEVEL:    2823841  ACCURACY: 83.1336
L1I TIMELY PREFETCHES:    2347561 LATE PREFETCHES: 6843 DROPPED PREFETCHES: 155
L1I PREFETCHES SAME FILL-ORIGIN LEVEL: 2823841 DIFFERENT FILL-ORIGIN LEVEL: 0
L1I AVERAGE MISS LATENCY: 158026 cycles
L1I RQ	ACCESS:   13969029	FORWARD:          0	MERGED:    4324835	TO_CACHE:    9644194
L1I PQ	ACCESS:    4632391	FORWARD:          0	MERGED:     163675	TO_CACHE:    4468716

BTB TOTAL     ACCESS:    5420737  HIT:    5179354  MISS:     241383  HIT %:     95.547  MISS %:    4.45296   MPKI: 4.82766
BTB BRANCH_DIRECT_JUMP	ACCESS:     464500  HIT:     462787  MISS:       1713
BTB BRANCH_INDIRECT	ACCESS:      45704  HIT:      45540  MISS:        164
BTB BRANCH_CONDITIONAL	ACCESS:    3156565  HIT:    3151071  MISS:       5494
BTB BRANCH_DIRECT_CALL	ACCESS:     675450  HIT:     671839  MISS:       3611
BTB BRANCH_INDIRECT_CALL	ACCESS:     201532  HIT:     175397  MISS:      26135
BTB BRANCH_RETURN	ACCESS:     876986  HIT:     672720  MISS:     204266
BTB BRANCH_OTHER ACCESS:          0  HIT:          0  MISS:          0

L2C TOTAL     ACCESS:    6853833  HIT:    4598071  MISS:    2255762  HIT %:    67.0876  MISS %:    32.9124   MPKI: 45.1152
L2C LOAD      ACCESS:     594796  HIT:     194072  MISS:     400724  HIT %:    32.6283  MISS %:    67.3717   MPKI: 8.01448
L2C DATA LOAD MPKI: 7.90332
L2C INSTRUCTION LOAD MPKI: 0.11116
L2C RFO       ACCESS:     869964  HIT:      26959  MISS:     843005  HIT %:    3.09886  MISS %:    96.9011   MPKI: 16.8601
L2C PREFETCH  ACCESS:    4183884  HIT:    3247901  MISS:     935983  HIT %:    77.6288  MISS %:    22.3712   MPKI: 18.7197
L2C DATA PREFETCH MPKI: 15.8463
L2C INSTRUCTION PREFETCH MPKI: 2.87332
L2C WRITEBACK ACCESS:    1116358  HIT:    1074688  MISS:      41670  HIT %:    96.2673  MISS %:    3.73267   MPKI: 0.8334
L2C LOAD TRANSLATION ACCESS:      87233  HIT:      53847  MISS:      33386  HIT %:    61.7278  MISS %:    38.2722   MPKI: 0.66772
L2C TRANSLATION FROM L1D PREFETCHER ACCESS:       1598  HIT:        604  MISS:        994  HIT %:    37.7972  MISS %:    62.2028   MPKI: 0.01988
L2C PREFETCH  REQUESTED:    1003477  ISSUED:    1000222  USEFUL:      15836  USELESS:     921764
L2C USEFUL LOAD PREFETCHES:      15836 PREFETCH ISSUED TO LOWER LEVEL:     936504  ACCURACY: 1.69097
L2C TIMELY PREFETCHES:      15836 LATE PREFETCHES: 518 DROPPED PREFETCHES: 0
L2C PREFETCHES SAME FILL-ORIGIN LEVEL: 168273 DIFFERENT FILL-ORIGIN LEVEL: 0
L2C AVERAGE MISS LATENCY: 175.81 cycles
L2C RQ	ACCESS:    1553622	FORWARD:          0	MERGED:          0	TO_CACHE:    1553594
L2C WQ	ACCESS:    1116358	FORWARD:         32	MERGED:          0	TO_CACHE:    1116358
L2C PQ	ACCESS:    4669144	FORWARD:          0	MERGED:     353205	TO_CACHE:    4315935

L2C Instructions Evicting Data 134944
L2C Translations Evicting Data 31099
L2C Data Evicting Data 1867429
L2C Instructions Evicting Instructions 11624
L2C Translations Evicting Instructions 2809
L2C Data Evicting Instructions 132371
L2C Instructions Evicting Translations 2656
L2C Translations Evicting Translations 472
L2C Data Evicting Translations 30688
L2C Dense regions hint from L2: 0
PSCL5 TOTAL     ACCESS:      63488  HIT:      63488  MISS:          0  HIT %:        100  MISS %:          0   MPKI: 0
PSCL5 LOAD TRANSLATION ACCESS:      62417  HIT:      62417  MISS:          0  HIT %:        100  MISS %:          0   MPKI: 0
PSCL5 TRANSLATION FROM L1D PREFETCHER ACCESS:       1071  HIT:       1071  MISS:          0  HIT %:        100  MISS %:          0   MPKI: 0
PSCL5 PREFETCH  REQUESTED:          0  ISSUED:          0  USEFUL:          0  USELESS:          0
PSCL5 USEFUL LOAD PREFETCHES:          0 PREFETCH ISSUED TO LOWER LEVEL:          0  ACCURACY: -nan
PSCL5 TIMELY PREFETCHES:          0 LATE PREFETCHES: 0 DROPPED PREFETCHES: 0
PSCL5 PREFETCHES SAME FILL-ORIGIN LEVEL: 0 DIFFERENT FILL-ORIGIN LEVEL: 0

PSCL4 TOTAL     ACCESS:      34794  HIT:      34669  MISS:        125  HIT %:    99.6407  MISS %:   0.359257   MPKI: 0.0025
PSCL4 LOAD TRANSLATION ACCESS:      33884  HIT:      33759  MISS:        125  HIT %:    99.6311  MISS %:   0.368906   MPKI: 0.0025
PSCL4 TRANSLATION FROM L1D PREFETCHER ACCESS:        910  HIT:        910  MISS:          0  HIT %:        100  MISS %:          0   MPKI: 0
PSCL4 PREFETCH  REQUESTED:          0  ISSUED:          0  USEFUL:          0  USELESS:          0
PSCL4 USEFUL LOAD PREFETCHES:          0 PREFETCH ISSUED TO LOWER LEVEL:          0  ACCURACY: -nan
PSCL4 TIMELY PREFETCHES:          0 LATE PREFETCHES: 0 DROPPED PREFETCHES: 0
PSCL4 PREFETCHES SAME FILL-ORIGIN LEVEL: 0 DIFFERENT FILL-ORIGIN LEVEL: 0

PSCL3 TOTAL     ACCESS:      63243  HIT:      62767  MISS:        476  HIT %:    99.2473  MISS %:   0.752652   MPKI: 0.00952
PSCL3 LOAD TRANSLATION ACCESS:      62312  HIT:      61836  MISS:        476  HIT %:    99.2361  MISS %:   0.763898   MPKI: 0.00952
PSCL3 TRANSLATION FROM L1D PREFETCHER ACCESS:        931  HIT:        931  MISS:          0  HIT %:        100  MISS %:          0   MPKI: 0
PSCL3 PREFETCH  REQUESTED:          0  ISSUED:          0  USEFUL:          0  USELESS:          0
PSCL3 USEFUL LOAD PREFETCHES:          0 PREFETCH ISSUED TO LOWER LEVEL:          0  ACCURACY: -nan
PSCL3 TIMELY PREFETCHES:          0 LATE PREFETCHES: 0 DROPPED PREFETCHES: 0
PSCL3 PREFETCHES SAME FILL-ORIGIN LEVEL: 0 DIFFERENT FILL-ORIGIN LEVEL: 0

PSCL2 TOTAL     ACCESS:      63405  HIT:      38707  MISS:      24698  HIT %:    61.0472  MISS %:    38.9528   MPKI: 0.49396
PSCL2 LOAD TRANSLATION ACCESS:      62735  HIT:      38037  MISS:      24698  HIT %:    60.6312  MISS %:    39.3688   MPKI: 0.49396
PSCL2 TRANSLATION FROM L1D PREFETCHER ACCESS:        670  HIT:        670  MISS:          0  HIT %:        100  MISS %:          0   MPKI: 0
PSCL2 PREFETCH  REQUESTED:          0  ISSUED:          0  USEFUL:          0  USELESS:          0
PSCL2 USEFUL LOAD PREFETCHES:          0 PREFETCH ISSUED TO LOWER LEVEL:          0  ACCURACY: -nan
PSCL2 TIMELY PREFETCHES:          0 LATE PREFETCHES: 0 DROPPED PREFETCHES: 0
PSCL2 PREFETCHES SAME FILL-ORIGIN LEVEL: 0 DIFFERENT FILL-ORIGIN LEVEL: 0

LLC TOTAL     ACCESS:    3262861  HIT:    1207769  MISS:    2055092  HIT %:    37.0156  MISS %:    62.9844   MPKI: 41.1018
LLC LOAD      ACCESS:     400209  HIT:     245661  MISS:     154548  HIT %:    61.3832  MISS %:    38.6168   MPKI: 3.09096
LLC RFO       ACCESS:     843001  HIT:     205995  MISS:     637006  HIT %:    24.4359  MISS %:    75.5641   MPKI: 12.7401
LLC PREFETCH  ACCESS:     936501  HIT:     243601  MISS:     692900  HIT %:    26.0118  MISS %:    73.9882   MPKI: 13.858
LLC WRITEBACK ACCESS:    1048770  HIT:     496185  MISS:     552585  HIT %:    47.3111  MISS %:    52.6889   MPKI: 11.0517
LLC LOAD TRANSLATION ACCESS:      33386  HIT:      15932  MISS:      17454  HIT %:    47.7206  MISS %:    52.2794   MPKI: 0.34908
LLC TRANSLATION FROM L1D PREFETCHER ACCESS:        994  HIT:        395  MISS:        599  HIT %:    39.7384  MISS %:    60.2616   MPKI: 0.01198
LLC PREFETCH  REQUESTED:          0  ISSUED:          0  USEFUL:       4431  USELESS:     682026
LLC USEFUL LOAD PREFETCHES:       4431 PREFETCH ISSUED TO LOWER LEVEL:     692903  ACCURACY: 0.639483
LLC TIMELY PREFETCHES:       4431 LATE PREFETCHES: 0 DROPPED PREFETCHES: 0
LLC PREFETCHES SAME FILL-ORIGIN LEVEL: 0 DIFFERENT FILL-ORIGIN LEVEL: 0
LLC AVERAGE MISS LATENCY: 159.469 cycles
LLC RQ	ACCESS:    1277594	FORWARD:          0	MERGED:          0	TO_CACHE:    1277593
LLC WQ	ACCESS:    1048770	FORWARD:          1	MERGED:          0	TO_CACHE:    1048770
LLC PQ	ACCESS:     936504	FORWARD:          0	MERGED:          0	TO_CACHE:     936504

LLC Dense regions hint to LLC: 0

RAW hits: 1305454
Loads Generated: 12088598
Loads sent to L1D: 10783147
Stores Generated: 8175295
Stores sent to L1D: 8175288
Major fault: 0 Minor fault: 24906
Allocated PAGES: 24906
I-Shadow cache 408 bytes
Touched + WorthPF tables 6144 bytes 
MMA filter 174 bytes 
FNL filter 272 bytes 
TOTAL PREFETCHER STORAGE SIZE: 25174 bytes
CPU 0 L1I next line prefetcher final stats

stream: 
stream:times selected: 1905331
stream:pref_filled: 1037331
stream:pref_useful: 516518
stream:pref_late: 10784
stream:misses: 25477
stream:misses_by_poll: 0

CS: 
CS:times selected: 1401226
CS:pref_filled: 7506
CS:pref_useful: 7161
CS:pref_late: 299
CS:misses: 19898
CS:misses_by_poll: 37

CPLX: 
CPLX:times selected: 499699
CPLX:pref_filled: 58451
CPLX:pref_useful: 20918
CPLX:pref_late: 220
CPLX:misses: 76010
CPLX:misses_by_poll: 86

NL_L1: 
NL:times selected: 1924
NL:pref_filled: 684
NL:pref_useful: 58
NL:pref_late: 12
NL:misses: 908
NL:misses_by_poll: 1

total selections: 3808180
total_filled: 835415
total_useful: 310360
total_late: 11828
total_polluted: 124
total_misses_after_warmup: 164528
conflicts: 119180
Degree Incremented Times: 13005
Degree Decremented Times: 7512

L1 IP Table Write Accesses: 2220967
L1 IP Table Read Accesses: 2101787
L1 RST Write Accesses: 1562426
L1 RST Read Accesses: 3124852
L1 CSPT Write Accesses: 1562426
L1 CSPT Read Accesses: 2048787
L1 RR Filter Tag Write Accesses: 1278416
L1 RR Filter Tag Read Accesses: 373518382
L1 IP Table Tag Write Accesses: 2396444
L1 IP Table Tag Read Accesses: 2396444
L1 RST Tag Write Accesses: 0
L1 RST Tag Read Accesses: 14095789
L1 RR Filter Write Accesses: 0
L1 RR Filter Read Accesses: 12824050
test: 222431
L2 IP Table Read Accesses: 1702904
L2 IP Table Write Accesses: 1724950
L2 IP Table Tag Read Accesses: 938081
L2 IP Table Tag Write Accesses: 938081

DRAM Statistics
 CHANNEL 0
 RQ ROW_BUFFER_HIT:     483004  ROW_BUFFER_MISS:    1019393
 DBUS_CONGESTED:        649
 WQ ROW_BUFFER_HIT:     166180  ROW_BUFFER_MISS:     587449  FULL:      15447

 AVG_CONGESTED_CYCLE: 3
 All warmup complete: 2
Channel 0 Bank busy for read cycles: 0
Channel 0 Bank busy for write cycles: 0
Channel 0
Rank 0
0banks busy for read cycles: 21608886
0banks busy for write cycles: 45627
1banks busy for read cycles: 17398319
1banks busy for write cycles: 6618517
2banks busy for read cycles: 10076674
2banks busy for write cycles: 3240515
3banks busy for read cycles: 4843294
3banks busy for write cycles: 1968757
4banks busy for read cycles: 4201886
4banks busy for write cycles: 1585892
5banks busy for read cycles: 2516207
5banks busy for write cycles: 1584588
6banks busy for read cycles: 3153936
6banks busy for write cycles: 1857032
7banks busy for read cycles: 4933676
7banks busy for write cycles: 3059076
8banks busy for read cycles: 5550644
8banks busy for write cycles: 10974681

CPU 0 Branch Prediction Accuracy: 99.2833% MPKI: 1.20566 Average ROB Occupancy at Mispredict: 135.384
Branch types
NOT_BRANCH: 41588317 83.1766%
BRANCH_DIRECT_JUMP: 464500 0.929%
BRANCH_INDIRECT: 45704 0.091408%
BRANCH_CONDITIONAL: 6147405 12.2948%
BRANCH_DIRECT_CALL: 675450 1.3509%
BRANCH_INDIRECT_CALL: 201532 0.403064%
BRANCH_RETURN: 876986 1.75397%
BRANCH_OTHER: 0 0%

DRAM PAGES: 1048576
Allocated PAGES: 24906
