Initialize SIGNATURE TABLE
ST_SET: 1
ST_WAY: 256
ST_TAG_BIT: 16
ST_TAG_MASK: ffff

Initialize PATTERN TABLE
PT_SET: 512
PT_WAY: 4
SIG_DELTA_BIT: 7
C_SIG_BIT: 4
C_DELTA_BIT: 4

Initialize PREFETCH FILTER
FILTER_SET: 1024

*** ChampSim Multicore Out-of-Order Simulator ***

Warmup Instructions: 50000000
Simulation Instructions: 50000000
Number of CPUs: 1
LLC sets: 2048
LLC ways: 16
Off-chip DRAM Size: 4096 MB Channels: 1 Width: 64-bit Data Rate: 6400 MT/s
CPU 0 runs ../IPC-traces//server_029.champsimtrace.xz
.xz
NUM_OF_IPS_IN_CRITICAL_IP_TRAINING: 64
NUM_OF_CRITICAL_IP_TRAINING_TABLE_WAYS: 2
NUM_OF_CRITICAL_IP_TRAINING_TABLE_SETS: 32
WOBBLY_CRITICAL_IP_CACHE_SETS: 32
WOBBLY_CRITICAL_IP_CACHE_WAYS: 4
BTB has LRU replacement policy
ITLB has LRU replacement policy
DTLB has LRU replacement policy
STLB has LRU replacement policy
CPU 0 L1I next line prefetcher
L1I has LRU replacement policy
L1D has LRU replacement policy
Initialize SRRIP state for L2C
Initialize DRRIP state for LLC
Heartbeat CPU 0 instructions: 10000001 cycles: 2880626 heartbeat IPC: 3.47147 cumulative IPC: 3.47147 (Simulation time: 0 hr 3 min 13 sec) 
Heartbeat CPU 0 instructions: 20000000 cycles: 5756495 heartbeat IPC: 3.47721 cumulative IPC: 3.47434 (Simulation time: 0 hr 6 min 1 sec) 
Heartbeat CPU 0 instructions: 30000000 cycles: 8632571 heartbeat IPC: 3.47696 cumulative IPC: 3.47521 (Simulation time: 0 hr 8 min 30 sec) 
Heartbeat CPU 0 instructions: 40000001 cycles: 11512424 heartbeat IPC: 3.4724 cumulative IPC: 3.47451 (Simulation time: 0 hr 10 min 48 sec) 
Heartbeat CPU 0 instructions: 50000002 cycles: 14391414 heartbeat IPC: 3.47344 cumulative IPC: 3.47429 (Simulation time: 0 hr 12 min 52 sec) 

Warmup complete CPU 0 instructions: 50000002 cycles: 14391414 (Simulation time: 0 hr 12 min 52 sec) 

% increase in all ip prefetch 424.34
% increase in all ip prefetch -0.157161
Heartbeat CPU 0 instructions: 60000000 cycles: 30779361 heartbeat IPC: 0.610204 cumulative IPC: 0.610204 (Simulation time: 0 hr 15 min 22 sec) 
Heartbeat CPU 0 instructions: 70000000 cycles: 47242045 heartbeat IPC: 0.607434 cumulative IPC: 0.608816 (Simulation time: 0 hr 17 min 55 sec) 
Heartbeat CPU 0 instructions: 80000002 cycles: 63543224 heartbeat IPC: 0.613453 cumulative IPC: 0.610354 (Simulation time: 0 hr 20 min 26 sec) 
*** Reached end of trace for Core: 0 Repeating trace: ../IPC-traces//server_029.champsimtrace.xz
Heartbeat CPU 0 instructions: 90000000 cycles: 79697672 heartbeat IPC: 0.619024 cumulative IPC: 0.612499 (Simulation time: 0 hr 22 min 53 sec) 
Heartbeat CPU 0 instructions: 100000001 cycles: 95780709 heartbeat IPC: 0.621773 cumulative IPC: 0.614331 (Simulation time: 0 hr 24 min 23 sec) 
Finished CPU 0 instructions: 50000002 cycles: 81389296 cumulative IPC: 0.614331 (Simulation time: 0 hr 24 min 23 sec) 

ChampSim completed all CPUs

Region of Interest Statistics

CPU 0 cumulative IPC: 0.614331 instructions: 50000002 cycles: 81389296

CPU 0 Average Load ROB stall cycles: 1.9732e+07
CPU 0 Fraction of times ROB stalled by Loads: 35.7617
CPU 0 Percentage of Load stall cycles in Total stall cycles: 2.70345e+08
Issued all: 28162172
Issued LT all: 22243703
rob_not_full_when_issued_lt_all: 22114953
Issued LT one: 17352993
rob_not_full_when_issued_lt_one: 17241232
 Total stall cycles: 69037665
 Total load stall cycles: 186639710361009
CPU 0 NUM of IPS identified critical: 0
CPU 0 Num of Load IPs stalling ROB: 10057
Threshold modification factor: -1
Max PIST entries: 64
Min PIST entries: 0
Avg PIST entries: 32
Trouble in retire width: 0.890729
MaC = Marked as critical.
lt_50_percent_before_Mac: 0
gt_90_percent_before_Mac: 0
gt_75_percent_before_Mac: 0
gt_50_percent_before_Mac: 0
stall_proportion_bin_same_before_after: 0
stall_proportion_bin_lower_before_after: 0
stall_proportion_bin_upper_before_after: 0
average_stall_proportion_before: -nan
average_stall_proportion_after: -nan
Critical IP stalls, total frequency: 0
Non-critical IP stalls, total frequency: 3382598
Total Freq all stalling IPs: 3382598
stat_90_percent_critical_ip_stalls_freq: 3044552
stat_90_percent_non_critical_ip_stalls_freq: 338046
Critical_IP_ROB_Stalls_Bucket_0: 0
Non-critical_IP_ROB_Stalls_Bucket_0: 2352384
Critical_IP_ROB_Stalls_Bucket_1: 0
Non-critical_IP_ROB_Stalls_Bucket_1: 692513
Critical_IP_ROB_Stalls_Bucket_2: 0
Non-critical_IP_ROB_Stalls_Bucket_2: 238386
Critical_IP_ROB_Stalls_Bucket_3: 0
Non-critical_IP_ROB_Stalls_Bucket_3: 63440
Critical_IP_ROB_Stalls_Bucket_4: 0
Non-critical_IP_ROB_Stalls_Bucket_4: 23077
Critical_IP_ROB_Stalls_Bucket_5: 0
Non-critical_IP_ROB_Stalls_Bucket_5: 6917
Critical_IP_ROB_Stalls_Bucket_6: 0
Non-critical_IP_ROB_Stalls_Bucket_6: 5881
0 => IPs accounting for >50 percent of stalls, 1 => 55, 2 => 60, 3 => 65 and so on till 90.
percent50: 50.0194 num IPs:  428
percent55: 55.0229 num IPs: 611
percent60: 60.007 num IPs: 821
percent65: 65.0115 num IPs: 1036
percent70: 70.0014 num IPs: 1256
percent75: 75.0044 num IPs: 1477
percent80: 80.0172 num IPs: 1701
percent85: 85.0203 num IPs: 1933
percent90: 90.0062 num IPs: 2193
Critical_ROB_Stalls_Percent_0_Bucket_0: 1010279
Non-critical_ROB_Stalls_Percent_0_Bucket_0: 1342105
Critical_ROB_Stalls_Percent_0_Bucket_1: 419698
Non-critical_ROB_Stalls_Percent_0_Bucket_1: 272815
Critical_ROB_Stalls_Percent_0_Bucket_2: 176088
Non-critical_ROB_Stalls_Percent_0_Bucket_2: 62298
Critical_ROB_Stalls_Percent_0_Bucket_3: 55170
Non-critical_ROB_Stalls_Percent_0_Bucket_3: 8270
Critical_ROB_Stalls_Percent_0_Bucket_4: 19640
Non-critical_ROB_Stalls_Percent_0_Bucket_4: 3437
Critical_ROB_Stalls_Percent_0_Bucket_5: 5941
Non-critical_ROB_Stalls_Percent_0_Bucket_5: 976
Critical_ROB_Stalls_Percent_0_Bucket_6: 5140
Non-critical_ROB_Stalls_Percent_0_Bucket_6: 741
Critical_ROB_Stalls_Percent_1_Bucket_0: 1136258
Non-critical_ROB_Stalls_Percent_1_Bucket_0: 1216126
Critical_ROB_Stalls_Percent_1_Bucket_1: 452230
Non-critical_ROB_Stalls_Percent_1_Bucket_1: 240283
Critical_ROB_Stalls_Percent_1_Bucket_2: 184514
Non-critical_ROB_Stalls_Percent_1_Bucket_2: 53872
Critical_ROB_Stalls_Percent_1_Bucket_3: 56855
Non-critical_ROB_Stalls_Percent_1_Bucket_3: 6585
Critical_ROB_Stalls_Percent_1_Bucket_4: 20220
Non-critical_ROB_Stalls_Percent_1_Bucket_4: 2857
Critical_ROB_Stalls_Percent_1_Bucket_5: 5981
Non-critical_ROB_Stalls_Percent_1_Bucket_5: 936
Critical_ROB_Stalls_Percent_1_Bucket_6: 5143
Non-critical_ROB_Stalls_Percent_1_Bucket_6: 738
Critical_ROB_Stalls_Percent_2_Bucket_0: 1239954
Non-critical_ROB_Stalls_Percent_2_Bucket_0: 1112430
Critical_ROB_Stalls_Percent_2_Bucket_1: 502406
Non-critical_ROB_Stalls_Percent_2_Bucket_1: 190107
Critical_ROB_Stalls_Percent_2_Bucket_2: 197172
Non-critical_ROB_Stalls_Percent_2_Bucket_2: 41214
Critical_ROB_Stalls_Percent_2_Bucket_3: 58321
Non-critical_ROB_Stalls_Percent_2_Bucket_3: 5119
Critical_ROB_Stalls_Percent_2_Bucket_4: 20817
Non-critical_ROB_Stalls_Percent_2_Bucket_4: 2260
Critical_ROB_Stalls_Percent_2_Bucket_5: 5984
Non-critical_ROB_Stalls_Percent_2_Bucket_5: 933
Critical_ROB_Stalls_Percent_2_Bucket_6: 5143
Non-critical_ROB_Stalls_Percent_2_Bucket_6: 738
Critical_ROB_Stalls_Percent_3_Bucket_0: 1368022
Non-critical_ROB_Stalls_Percent_3_Bucket_0: 984362
Critical_ROB_Stalls_Percent_3_Bucket_1: 535562
Non-critical_ROB_Stalls_Percent_3_Bucket_1: 156951
Critical_ROB_Stalls_Percent_3_Bucket_2: 204710
Non-critical_ROB_Stalls_Percent_3_Bucket_2: 33676
Critical_ROB_Stalls_Percent_3_Bucket_3: 58537
Non-critical_ROB_Stalls_Percent_3_Bucket_3: 4903
Critical_ROB_Stalls_Percent_3_Bucket_4: 21114
Non-critical_ROB_Stalls_Percent_3_Bucket_4: 1963
Critical_ROB_Stalls_Percent_3_Bucket_5: 5989
Non-critical_ROB_Stalls_Percent_3_Bucket_5: 928
Critical_ROB_Stalls_Percent_3_Bucket_6: 5143
Non-critical_ROB_Stalls_Percent_3_Bucket_6: 738
Critical_ROB_Stalls_Percent_4_Bucket_0: 1502008
Non-critical_ROB_Stalls_Percent_4_Bucket_0: 850376
Critical_ROB_Stalls_Percent_4_Bucket_1: 565745
Non-critical_ROB_Stalls_Percent_4_Bucket_1: 126768
Critical_ROB_Stalls_Percent_4_Bucket_2: 209264
Non-critical_ROB_Stalls_Percent_4_Bucket_2: 29122
Critical_ROB_Stalls_Percent_4_Bucket_3: 58599
Non-critical_ROB_Stalls_Percent_4_Bucket_3: 4841
Critical_ROB_Stalls_Percent_4_Bucket_4: 21117
Non-critical_ROB_Stalls_Percent_4_Bucket_4: 1960
Critical_ROB_Stalls_Percent_4_Bucket_5: 5989
Non-critical_ROB_Stalls_Percent_4_Bucket_5: 928
Critical_ROB_Stalls_Percent_4_Bucket_6: 5144
Non-critical_ROB_Stalls_Percent_4_Bucket_6: 737
Critical_ROB_Stalls_Percent_5_Bucket_0: 1640911
Non-critical_ROB_Stalls_Percent_5_Bucket_0: 711473
Critical_ROB_Stalls_Percent_5_Bucket_1: 588395
Non-critical_ROB_Stalls_Percent_5_Bucket_1: 104118
Critical_ROB_Stalls_Percent_5_Bucket_2: 216594
Non-critical_ROB_Stalls_Percent_5_Bucket_2: 21792
Critical_ROB_Stalls_Percent_5_Bucket_3: 58957
Non-critical_ROB_Stalls_Percent_5_Bucket_3: 4483
Critical_ROB_Stalls_Percent_5_Bucket_4: 21118
Non-critical_ROB_Stalls_Percent_5_Bucket_4: 1959
Critical_ROB_Stalls_Percent_5_Bucket_5: 5989
Non-critical_ROB_Stalls_Percent_5_Bucket_5: 928
Critical_ROB_Stalls_Percent_5_Bucket_6: 5144
Non-critical_ROB_Stalls_Percent_5_Bucket_6: 737
Critical_ROB_Stalls_Percent_6_Bucket_0: 1785493
Non-critical_ROB_Stalls_Percent_6_Bucket_0: 566891
Critical_ROB_Stalls_Percent_6_Bucket_1: 607895
Non-critical_ROB_Stalls_Percent_6_Bucket_1: 84618
Critical_ROB_Stalls_Percent_6_Bucket_2: 221771
Non-critical_ROB_Stalls_Percent_6_Bucket_2: 16615
Critical_ROB_Stalls_Percent_6_Bucket_3: 59184
Non-critical_ROB_Stalls_Percent_6_Bucket_3: 4256
Critical_ROB_Stalls_Percent_6_Bucket_4: 21179
Non-critical_ROB_Stalls_Percent_6_Bucket_4: 1898
Critical_ROB_Stalls_Percent_6_Bucket_5: 6000
Non-critical_ROB_Stalls_Percent_6_Bucket_5: 917
Critical_ROB_Stalls_Percent_6_Bucket_6: 5147
Non-critical_ROB_Stalls_Percent_6_Bucket_6: 734
Critical_ROB_Stalls_Percent_7_Bucket_0: 1937931
Non-critical_ROB_Stalls_Percent_7_Bucket_0: 414453
Critical_ROB_Stalls_Percent_7_Bucket_1: 621866
Non-critical_ROB_Stalls_Percent_7_Bucket_1: 70647
Critical_ROB_Stalls_Percent_7_Bucket_2: 224551
Non-critical_ROB_Stalls_Percent_7_Bucket_2: 13835
Critical_ROB_Stalls_Percent_7_Bucket_3: 59221
Non-critical_ROB_Stalls_Percent_7_Bucket_3: 4219
Critical_ROB_Stalls_Percent_7_Bucket_4: 21187
Non-critical_ROB_Stalls_Percent_7_Bucket_4: 1890
Critical_ROB_Stalls_Percent_7_Bucket_5: 6000
Non-critical_ROB_Stalls_Percent_7_Bucket_5: 917
Critical_ROB_Stalls_Percent_7_Bucket_6: 5147
Non-critical_ROB_Stalls_Percent_7_Bucket_6: 734
Critical_ROB_Stalls_Percent_8_Bucket_0: 2085923
Non-critical_ROB_Stalls_Percent_8_Bucket_0: 266461
Critical_ROB_Stalls_Percent_8_Bucket_1: 638204
Non-critical_ROB_Stalls_Percent_8_Bucket_1: 54309
Critical_ROB_Stalls_Percent_8_Bucket_2: 226543
Non-critical_ROB_Stalls_Percent_8_Bucket_2: 11843
Critical_ROB_Stalls_Percent_8_Bucket_3: 60041
Non-critical_ROB_Stalls_Percent_8_Bucket_3: 3399
Critical_ROB_Stalls_Percent_8_Bucket_4: 21620
Non-critical_ROB_Stalls_Percent_8_Bucket_4: 1457
Critical_ROB_Stalls_Percent_8_Bucket_5: 6537
Non-critical_ROB_Stalls_Percent_8_Bucket_5: 380
Critical_ROB_Stalls_Percent_8_Bucket_6: 5684
Non-critical_ROB_Stalls_Percent_8_Bucket_6: 197
Average ROB occupancy Load Stall Begin: 37.1035
Average ROB occupancy Load Stall End: 45.8538
Min ROB occupancy Load Stall Begin: 1
Max ROB occupancy Load Stall Begin: 352
Min ROB occupancy Load Stall End: 1
Max ROB occupancy Load Stall End: 352
Average ROB occupancy Critical Load Stall Begin: -nan
Average ROB occupancy Critical Load Stall End: -nan
Min ROB occupancy Critical Load Stall Begin: 400
Max ROB occupancy Critical Load Stall Begin: 0
Min ROB occupancy Critical Load Stall End: 400
Max ROB occupancy Critical Load Stall End: 0
 ROB Load Stall Begin Bucket Count 0: 2611365
 ROB Load Stall End Bucket Count 0: 2352384
 ROB Critical Load Stall Begin Bucket Count 0: 0
 ROB Critical Load Stall End Bucket Count 0: 0
 ROB Load Stall Begin Bucket Count 1: 510914
 ROB Load Stall End Bucket Count 1: 692513
 ROB Critical Load Stall Begin Bucket Count 1: 0
 ROB Critical Load Stall End Bucket Count 1: 0
 ROB Load Stall Begin Bucket Count 2: 181929
 ROB Load Stall End Bucket Count 2: 238386
 ROB Critical Load Stall Begin Bucket Count 2: 0
 ROB Critical Load Stall End Bucket Count 2: 0
 ROB Load Stall Begin Bucket Count 3: 50289
 ROB Load Stall End Bucket Count 3: 63440
 ROB Critical Load Stall Begin Bucket Count 3: 0
 ROB Critical Load Stall End Bucket Count 3: 0
 ROB Load Stall Begin Bucket Count 4: 17651
 ROB Load Stall End Bucket Count 4: 23077
 ROB Critical Load Stall Begin Bucket Count 4: 0
 ROB Critical Load Stall End Bucket Count 4: 0
 ROB Load Stall Begin Bucket Count 5: 5318
 ROB Load Stall End Bucket Count 5: 6917
 ROB Critical Load Stall Begin Bucket Count 5: 0
 ROB Critical Load Stall End Bucket Count 5: 0
 ROB Load Stall Begin Bucket Count 6: 5132
 ROB Load Stall End Bucket Count 6: 5881
 ROB Critical Load Stall Begin Bucket Count 6: 0
 ROB Critical Load Stall End Bucket Count 6: 0
PIST Tag Read Accesses: 2442944
PIST Read Accesses: 1221472
PIST Tag Write Accesses: 2442944
PIST Write Accesses: 1221472
Criticality detector called times: 3302353
Max global_stall_cycles_count: 2137809
Threshold Modified: 1 times, factor: -1
Sturdy critical IP cache stats: 
 Unused entries: 0
CIC Tag Read Accesses: 0
CIC Read Accesses: 0
CIC Tag Write Accesses: 0
CIC Write Accesses: 0
Wobbly critical IP cache stats: 
 Unused entries: 123
CIC Tag Read Accesses: 82846419
CIC Read Accesses: 0
CIC Tag Write Accesses: 5
CIC Write Accesses: 0
ITLB TOTAL     ACCESS:   10447331  HIT:    9695167  MISS:     752164  HIT %:    92.8004  MISS %:    7.19958   MPKI: 15.0433
ITLB LOAD TRANSLATION ACCESS:    8325089  HIT:    8274172  MISS:      50917  HIT %:    99.3884  MISS %:   0.611609   MPKI: 1.01834
ITLB TRANSLATION FROM L1D PREFETCHER ACCESS:    2122242  HIT:    1420995  MISS:     701247  HIT %:    66.9573  MISS %:    33.0427   MPKI: 14.0249
ITLB PREFETCH  REQUESTED:          0  ISSUED:          0  USEFUL:     558902  USELESS:     142342
ITLB USEFUL LOAD PREFETCHES:     558902 PREFETCH ISSUED TO LOWER LEVEL:          0  ACCURACY: inf
ITLB TIMELY PREFETCHES:     558902 LATE PREFETCHES: 706 DROPPED PREFETCHES: 5253
ITLB PREFETCHES SAME FILL-ORIGIN LEVEL: 0 DIFFERENT FILL-ORIGIN LEVEL: 0
ITLB AVERAGE MISS LATENCY: 50867.2 cycles
ITLB RQ	ACCESS:   15740698	FORWARD:          0	MERGED:    5248618	TO_CACHE:   10492080

DTLB TOTAL     ACCESS:   11131171  HIT:   10586794  MISS:     544377  HIT %:    95.1094  MISS %:    4.89056   MPKI: 10.8875
DTLB LOAD TRANSLATION ACCESS:   11131171  HIT:   10586794  MISS:     544377  HIT %:    95.1094  MISS %:    4.89056   MPKI: 10.8875
DTLB PREFETCH  REQUESTED:          0  ISSUED:          0  USEFUL:          0  USELESS:          0
DTLB USEFUL LOAD PREFETCHES:          0 PREFETCH ISSUED TO LOWER LEVEL:          0  ACCURACY: -nan
DTLB TIMELY PREFETCHES:          0 LATE PREFETCHES: 0 DROPPED PREFETCHES: 0
DTLB PREFETCHES SAME FILL-ORIGIN LEVEL: 0 DIFFERENT FILL-ORIGIN LEVEL: 0
DTLB AVERAGE MISS LATENCY: 10.9569 cycles
DTLB RQ	ACCESS:   14628547	FORWARD:          0	MERGED:    3469410	TO_CACHE:   11159137

STLB TOTAL     ACCESS:    1296540  HIT:    1281108  MISS:      15432  HIT %:    98.8098  MISS %:    1.19024   MPKI: 0.30864
STLB LOAD TRANSLATION ACCESS:     594588  HIT:     581001  MISS:      13587  HIT %:    97.7149  MISS %:    2.28511   MPKI: 0.27174
STLB TRANSLATION FROM L1D PREFETCHER ACCESS:     701952  HIT:     700107  MISS:       1845  HIT %:    99.7372  MISS %:   0.262838   MPKI: 0.0369
STLB PREFETCH  REQUESTED:          0  ISSUED:          0  USEFUL:       1660  USELESS:        190
STLB USEFUL LOAD PREFETCHES:       1660 PREFETCH ISSUED TO LOWER LEVEL:          0  ACCURACY: inf
STLB TIMELY PREFETCHES:       1660 LATE PREFETCHES: 0 DROPPED PREFETCHES: 5253
STLB PREFETCHES SAME FILL-ORIGIN LEVEL: 0 DIFFERENT FILL-ORIGIN LEVEL: 0
STLB AVERAGE MISS LATENCY: 74.5679 cycles
STLB RQ	ACCESS:    1301792	FORWARD:          0	MERGED:          0	TO_CACHE:    1301792

STLB Hit, L1D data hit: 0
STLB Hit, L2C data hit: 0
STLB Hit, LLC data hit: 0
STLB Hit, LLC data miss: 0
STLB STLB hints to L2: 0
L1D TOTAL     ACCESS:   14082442  HIT:   12619484  MISS:    1462958  HIT %:    89.6115  MISS %:    10.3885   MPKI: 29.2592
L1D LOAD      ACCESS:    7882998  HIT:    6730434  MISS:    1152564  HIT %:    85.3791  MISS %:    14.6209   MPKI: 23.0513
L1D RFO       ACCESS:    6199444  HIT:    5889050  MISS:     310394  HIT %:    94.9932  MISS %:     5.0068   MPKI: 6.20788
L1D PREFETCH  REQUESTED:          0  ISSUED:          0  USEFUL:          0  USELESS:          0
L1D USEFUL LOAD PREFETCHES:          0 PREFETCH ISSUED TO LOWER LEVEL:          0  ACCURACY: -nan
L1D TIMELY PREFETCHES:          0 LATE PREFETCHES: 0 DROPPED PREFETCHES: 0
L1D PREFETCHES SAME FILL-ORIGIN LEVEL: 0 DIFFERENT FILL-ORIGIN LEVEL: 0
L1D AVERAGE MISS LATENCY: 21.8264 cycles
L1D RQ	ACCESS:   11228572	FORWARD:          0	MERGED:    3155613	TO_CACHE:    7926934
L1D WQ	ACCESS:    6772786	FORWARD:     146025	MERGED:      71173	TO_CACHE:    6701613

L1D UNIQUE REGIONS ACCESSED: 0
L1D REGIONS CONFLICTS: 0
L1D Cross Page Prefetch Requests: 0
L1D Same Page Prefetch Requests: 0
L1D ROI Sum of L1D PQ occupancy: 0
L1D PREFETCHES PUSHED FROM L2C: 0
L1I TOTAL     ACCESS:   15657513  HIT:   11436787  MISS:    4220726  HIT %:    73.0434  MISS %:    26.9566   MPKI: 84.4145
L1I LOAD      ACCESS:    9771336  HIT:    9697555  MISS:      73781  HIT %:    99.2449  MISS %:   0.755076   MPKI: 1.47562
L1I PREFETCH  ACCESS:    5886177  HIT:    1739232  MISS:    4146945  HIT %:    29.5477  MISS %:    70.4523   MPKI: 82.9389
L1I PREFETCH  REQUESTED:    6083377  ISSUED:    6066426  USEFUL:    2962537  USELESS:    1184473
L1I USEFUL LOAD PREFETCHES:    2962537 PREFETCH ISSUED TO LOWER LEVEL:    4161907  ACCURACY: 71.1822
L1I TIMELY PREFETCHES:    2962537 LATE PREFETCHES: 14962 DROPPED PREFETCHES: 11621
L1I PREFETCHES SAME FILL-ORIGIN LEVEL: 4161907 DIFFERENT FILL-ORIGIN LEVEL: 0
L1I AVERAGE MISS LATENCY: 203483 cycles
L1I RQ	ACCESS:   13582076	FORWARD:          0	MERGED:    3801584	TO_CACHE:    9780492
L1I PQ	ACCESS:    6066426	FORWARD:          0	MERGED:     106220	TO_CACHE:    5960206

BTB TOTAL     ACCESS:    6128546  HIT:    4286215  MISS:    1842331  HIT %:    69.9385  MISS %:    30.0615   MPKI: 36.8466
BTB BRANCH_DIRECT_JUMP	ACCESS:     525208  HIT:     377778  MISS:     147430
BTB BRANCH_INDIRECT	ACCESS:     166358  HIT:     130843  MISS:      35515
BTB BRANCH_CONDITIONAL	ACCESS:    3088484  HIT:    2580549  MISS:     507935
BTB BRANCH_DIRECT_CALL	ACCESS:     989263  HIT:     628305  MISS:     360958
BTB BRANCH_INDIRECT_CALL	ACCESS:     184984  HIT:     116407  MISS:      68577
BTB BRANCH_RETURN	ACCESS:    1174249  HIT:     452333  MISS:     721916
BTB BRANCH_OTHER ACCESS:          0  HIT:          0  MISS:          0

L2C TOTAL     ACCESS:    6337083  HIT:    5871278  MISS:     465805  HIT %:    92.6495  MISS %:    7.35046   MPKI: 9.3161
L2C LOAD      ACCESS:    1211383  HIT:    1061243  MISS:     150140  HIT %:    87.6059  MISS %:    12.3941   MPKI: 3.0028
L2C DATA LOAD MPKI: 2.86232
L2C INSTRUCTION LOAD MPKI: 0.14048
L2C RFO       ACCESS:     310393  HIT:     271460  MISS:      38933  HIT %:    87.4569  MISS %:    12.5431   MPKI: 0.77866
L2C PREFETCH  ACCESS:    4190725  HIT:    3946060  MISS:     244665  HIT %:    94.1618  MISS %:    5.83825   MPKI: 4.8933
L2C DATA PREFETCH MPKI: 0.00364
L2C INSTRUCTION PREFETCH MPKI: 4.88966
L2C WRITEBACK ACCESS:     593471  HIT:     572964  MISS:      20507  HIT %:    96.5446  MISS %:    3.45543   MPKI: 0.41014
L2C LOAD TRANSLATION ACCESS:      20492  HIT:       9833  MISS:      10659  HIT %:    47.9846  MISS %:    52.0154   MPKI: 0.21318
L2C TRANSLATION FROM L1D PREFETCHER ACCESS:      10619  HIT:       9718  MISS:        901  HIT %:    91.5152  MISS %:    8.48479   MPKI: 0.01802
L2C PREFETCH  REQUESTED:      52864  ISSUED:      52862  USEFUL:       2316  USELESS:     243463
L2C USEFUL LOAD PREFETCHES:       2316 PREFETCH ISSUED TO LOWER LEVEL:     265937  ACCURACY: 0.870883
L2C TIMELY PREFETCHES:       2316 LATE PREFETCHES: 904 DROPPED PREFETCHES: 0
L2C PREFETCHES SAME FILL-ORIGIN LEVEL: 1086 DIFFERENT FILL-ORIGIN LEVEL: 20368
L2C AVERAGE MISS LATENCY: 39.4696 cycles
L2C RQ	ACCESS:    1552888	FORWARD:          0	MERGED:          0	TO_CACHE:    1552887
L2C WQ	ACCESS:     593471	FORWARD:          1	MERGED:          0	TO_CACHE:     593471
L2C PQ	ACCESS:    4214769	FORWARD:          0	MERGED:       1738	TO_CACHE:    4213031

L2C Instructions Evicting Data 97021
L2C Translations Evicting Data 7203
L2C Data Evicting Data 88336
L2C Instructions Evicting Instructions 151065
L2C Translations Evicting Instructions 3378
L2C Data Evicting Instructions 86997
L2C Instructions Evicting Translations 3421
L2C Translations Evicting Translations 979
L2C Data Evicting Translations 6898
L2C Dense regions hint from L2: 0
PSCL5 TOTAL     ACCESS:      20684  HIT:      20684  MISS:          0  HIT %:        100  MISS %:          0   MPKI: 0
PSCL5 LOAD TRANSLATION ACCESS:      13587  HIT:      13587  MISS:          0  HIT %:        100  MISS %:          0   MPKI: 0
PSCL5 TRANSLATION FROM L1D PREFETCHER ACCESS:       7097  HIT:       7097  MISS:          0  HIT %:        100  MISS %:          0   MPKI: 0
PSCL5 PREFETCH  REQUESTED:          0  ISSUED:          0  USEFUL:          0  USELESS:          0
PSCL5 USEFUL LOAD PREFETCHES:          0 PREFETCH ISSUED TO LOWER LEVEL:          0  ACCURACY: -nan
PSCL5 TIMELY PREFETCHES:          0 LATE PREFETCHES: 0 DROPPED PREFETCHES: 0
PSCL5 PREFETCHES SAME FILL-ORIGIN LEVEL: 0 DIFFERENT FILL-ORIGIN LEVEL: 0

PSCL4 TOTAL     ACCESS:      20034  HIT:      19866  MISS:        168  HIT %:    99.1614  MISS %:   0.838574   MPKI: 0.00336
PSCL4 LOAD TRANSLATION ACCESS:      13024  HIT:      12856  MISS:        168  HIT %:    98.7101  MISS %:    1.28993   MPKI: 0.00336
PSCL4 TRANSLATION FROM L1D PREFETCHER ACCESS:       7010  HIT:       7010  MISS:          0  HIT %:        100  MISS %:          0   MPKI: 0
PSCL4 PREFETCH  REQUESTED:          0  ISSUED:          0  USEFUL:          0  USELESS:          0
PSCL4 USEFUL LOAD PREFETCHES:          0 PREFETCH ISSUED TO LOWER LEVEL:          0  ACCURACY: -nan
PSCL4 TIMELY PREFETCHES:          0 LATE PREFETCHES: 0 DROPPED PREFETCHES: 0
PSCL4 PREFETCHES SAME FILL-ORIGIN LEVEL: 0 DIFFERENT FILL-ORIGIN LEVEL: 0

PSCL3 TOTAL     ACCESS:      20589  HIT:      20420  MISS:        169  HIT %:    99.1792  MISS %:   0.820827   MPKI: 0.00338
PSCL3 LOAD TRANSLATION ACCESS:      13579  HIT:      13410  MISS:        169  HIT %:    98.7554  MISS %:    1.24457   MPKI: 0.00338
PSCL3 TRANSLATION FROM L1D PREFETCHER ACCESS:       7010  HIT:       7010  MISS:          0  HIT %:        100  MISS %:          0   MPKI: 0
PSCL3 PREFETCH  REQUESTED:          0  ISSUED:          0  USEFUL:          0  USELESS:          0
PSCL3 USEFUL LOAD PREFETCHES:          0 PREFETCH ISSUED TO LOWER LEVEL:          0  ACCURACY: -nan
PSCL3 TIMELY PREFETCHES:          0 LATE PREFETCHES: 0 DROPPED PREFETCHES: 0
PSCL3 PREFETCHES SAME FILL-ORIGIN LEVEL: 0 DIFFERENT FILL-ORIGIN LEVEL: 0

PSCL2 TOTAL     ACCESS:      18050  HIT:      10645  MISS:       7405  HIT %:    58.9751  MISS %:    41.0249   MPKI: 0.1481
PSCL2 LOAD TRANSLATION ACCESS:      14385  HIT:       6980  MISS:       7405  HIT %:    48.5228  MISS %:    51.4772   MPKI: 0.1481
PSCL2 TRANSLATION FROM L1D PREFETCHER ACCESS:       3665  HIT:       3665  MISS:          0  HIT %:        100  MISS %:          0   MPKI: 0
PSCL2 PREFETCH  REQUESTED:          0  ISSUED:          0  USEFUL:          0  USELESS:          0
PSCL2 USEFUL LOAD PREFETCHES:          0 PREFETCH ISSUED TO LOWER LEVEL:          0  ACCURACY: -nan
PSCL2 TIMELY PREFETCHES:          0 LATE PREFETCHES: 0 DROPPED PREFETCHES: 0
PSCL2 PREFETCHES SAME FILL-ORIGIN LEVEL: 0 DIFFERENT FILL-ORIGIN LEVEL: 0

LLC TOTAL     ACCESS:     517570  HIT:     479931  MISS:      37639  HIT %:    92.7277  MISS %:    7.27225   MPKI: 0.75278
LLC LOAD      ACCESS:     149234  HIT:     120848  MISS:      28386  HIT %:    80.9789  MISS %:    19.0211   MPKI: 0.56772
LLC RFO       ACCESS:      38926  HIT:      35314  MISS:       3612  HIT %:    90.7209  MISS %:    9.27915   MPKI: 0.07224
LLC PREFETCH  ACCESS:     264206  HIT:     260466  MISS:       3740  HIT %:    98.5844  MISS %:    1.41556   MPKI: 0.0748
LLC WRITEBACK ACCESS:      53644  HIT:      53230  MISS:        414  HIT %:    99.2282  MISS %:   0.771755   MPKI: 0.00828
LLC LOAD TRANSLATION ACCESS:      10659  HIT:       9208  MISS:       1451  HIT %:    86.3871  MISS %:    13.6129   MPKI: 0.02902
LLC TRANSLATION FROM L1D PREFETCHER ACCESS:        901  HIT:        865  MISS:         36  HIT %:    96.0044  MISS %:    3.99556   MPKI: 0.00072
LLC PREFETCH  REQUESTED:          0  ISSUED:          0  USEFUL:        971  USELESS:       8311
LLC USEFUL LOAD PREFETCHES:        971 PREFETCH ISSUED TO LOWER LEVEL:       4371  ACCURACY: 22.2146
LLC TIMELY PREFETCHES:        971 LATE PREFETCHES: 631 DROPPED PREFETCHES: 0
LLC PREFETCHES SAME FILL-ORIGIN LEVEL: 2540 DIFFERENT FILL-ORIGIN LEVEL: 0
LLC AVERAGE MISS LATENCY: 140.517 cycles
LLC RQ	ACCESS:     199729	FORWARD:          0	MERGED:          0	TO_CACHE:     199720
LLC WQ	ACCESS:      53644	FORWARD:          9	MERGED:          0	TO_CACHE:      53644
LLC PQ	ACCESS:     265937	FORWARD:          0	MERGED:         89	TO_CACHE:     265848

LLC Dense regions hint to LLC: 0

RAW hits: 1082561
Loads Generated: 12311133
Loads sent to L1D: 11228572
Stores Generated: 6772777
Stores sent to L1D: 6772786
Major fault: 0 Minor fault: 6134
Allocated PAGES: 6134
I-Shadow cache 408 bytes
Touched + WorthPF tables 6144 bytes 
MMA filter 174 bytes 
FNL filter 272 bytes 
TOTAL PREFETCHER STORAGE SIZE: 25174 bytes
CPU 0 L1I next line prefetcher final stats
 All Calls: 10633349
 Critical Calls: 10633349
------------------
Depth Distribution
------------------
depth 0: 0
depth 1: 1114351
depth 2: 183532
depth 3: 2532
depth 4: 1389
depth 5: 725
depth 6: 471
depth 7: 313
depth 8: 244
depth 9: 195
depth 10: 93
depth 11: 30
depth 12: 2
depth 13: 0
depth 14: 0
depth 15: 0
depth 16: 0
depth 17: 0
depth 18: 0
depth 19: 0
depth 20: 0
depth 21: 0
depth 22: 0
depth 23: 0
depth 24: 0
depth 25: 0
depth 26: 0
depth 27: 0
depth 28: 0
depth 29: 0
Total: 1303877
-----------------------------
-----------------------------
	Captured at Filter
-----------------------------
depth 0: 0
depth 1: 186611
depth 2: 93210
depth 3: 695
depth 4: 357
depth 5: 187
depth 6: 74
depth 7: 23
depth 8: 3
depth 9: 1
depth 10: 0
depth 11: 0
depth 12: 0
depth 13: 0
depth 14: 0
depth 15: 0
depth 16: 0
depth 17: 0
depth 18: 0
depth 19: 0
depth 20: 0
depth 21: 0
depth 22: 0
depth 23: 0
depth 24: 0
depth 25: 0
depth 26: 0
depth 27: 0
depth 28: 0
depth 29: 0
-----------------------------
-----------------------------
		Lost at Page
-----------------------------
depth 0: 0
depth 1: 227429
depth 2: 17590
depth 3: 284
depth 4: 138
depth 5: 84
depth 6: 63
depth 7: 45
depth 8: 37
depth 9: 30
depth 10: 15
depth 11: 5
depth 12: 1
depth 13: 0
depth 14: 0
depth 15: 0
depth 16: 0
depth 17: 0
depth 18: 0
depth 19: 0
depth 20: 0
depth 21: 0
depth 22: 0
depth 23: 0
depth 24: 0
depth 25: 0
depth 26: 0
depth 27: 0
depth 28: 0
depth 29: 0
-----------------------------
-----------------------------
	Lost due to PQ Size
-----------------------------
9959412
-----------------------------
ST read accesses: 4583564
ST write accesses: 728483
PT read accesses: 58372451
PT write accesses: 6143208
FILTER read accesses: 11201887
FILTER write accesses: 502770
GHR read accesses: 6638740
GHR write accesses: 116898
GHR counter read accesses: 52499506
GHR counter write accesses: 5533447
ST tag read accesses: 2415744900
ST tag write accesses: 264365270

DRAM Statistics
 CHANNEL 0
 RQ ROW_BUFFER_HIT:      12915  ROW_BUFFER_MISS:      24294
 DBUS_CONGESTED:         31
 WQ ROW_BUFFER_HIT:        755  ROW_BUFFER_MISS:       2408  FULL:          0

 AVG_CONGESTED_CYCLE: 2
 All warmup complete: 2
Channel 0 Bank busy for read cycles: 0
Channel 0 Bank busy for write cycles: 0
Channel 0
Rank 0
0banks busy for read cycles: 77594539
0banks busy for write cycles: 1874
1banks busy for read cycles: 2412160
1banks busy for write cycles: 457323
2banks busy for read cycles: 449278
2banks busy for write cycles: 136636
3banks busy for read cycles: 140707
3banks busy for write cycles: 54600
4banks busy for read cycles: 36542
4banks busy for write cycles: 25057
5banks busy for read cycles: 16902
5banks busy for write cycles: 7679
6banks busy for read cycles: 15480
6banks busy for write cycles: 1742
7banks busy for read cycles: 13695
7banks busy for write cycles: 1330
8banks busy for read cycles: 17478
8banks busy for write cycles: 6275

CPU 0 Branch Prediction Accuracy: 99.7245% MPKI: 0.51862 Average ROB Occupancy at Mispredict: 92.9784
Branch types
NOT_BRANCH: 40586566 81.1731%
BRANCH_DIRECT_JUMP: 525208 1.05042%
BRANCH_INDIRECT: 166358 0.332716%
BRANCH_CONDITIONAL: 6373077 12.7462%
BRANCH_DIRECT_CALL: 989263 1.97853%
BRANCH_INDIRECT_CALL: 184984 0.369968%
BRANCH_RETURN: 1174249 2.3485%
BRANCH_OTHER: 0 0%

DRAM PAGES: 1048576
Allocated PAGES: 6134
