
*** ChampSim Multicore Out-of-Order Simulator ***

Warmup Instructions: 50000000
Simulation Instructions: 50000000
Number of CPUs: 1
LLC sets: 2048
LLC ways: 16
Off-chip DRAM Size: 4096 MB Channels: 1 Width: 64-bit Data Rate: 6400 MT/s
CPU 0 runs ../IPC-traces//server_026.champsimtrace.xz
.xz
NUM_OF_IPS_IN_CRITICAL_IP_TRAINING: 64
NUM_OF_CRITICAL_IP_TRAINING_TABLE_WAYS: 2
NUM_OF_CRITICAL_IP_TRAINING_TABLE_SETS: 32
WOBBLY_CRITICAL_IP_CACHE_SETS: 32
WOBBLY_CRITICAL_IP_CACHE_WAYS: 4
BTB has LRU replacement policy
ITLB has LRU replacement policy
DTLB has LRU replacement policy
STLB has LRU replacement policy
CPU 0 L1I next line prefetcher
L1I has LRU replacement policy
IP Table Entries: 256
L1D has LRU replacement policy
IP_Table L2 entries: 256
Initialize SRRIP state for L2C
Initialize DRRIP state for LLC
Heartbeat CPU 0 instructions: 10000000 cycles: 2887439 heartbeat IPC: 3.46328 cumulative IPC: 3.46328 (Simulation time: 0 hr 4 min 14 sec) 
Heartbeat CPU 0 instructions: 20000002 cycles: 5772603 heartbeat IPC: 3.46601 cumulative IPC: 3.46464 (Simulation time: 0 hr 7 min 34 sec) 
Heartbeat CPU 0 instructions: 30000003 cycles: 8655892 heartbeat IPC: 3.46826 cumulative IPC: 3.46585 (Simulation time: 0 hr 10 min 33 sec) 
Heartbeat CPU 0 instructions: 40000001 cycles: 11541345 heartbeat IPC: 3.46566 cumulative IPC: 3.4658 (Simulation time: 0 hr 13 min 10 sec) 
Heartbeat CPU 0 instructions: 50000000 cycles: 14424794 heartbeat IPC: 3.46807 cumulative IPC: 3.46625 (Simulation time: 0 hr 15 min 41 sec) 

Warmup complete CPU 0 instructions: 50000004 cycles: 14424795 (Simulation time: 0 hr 15 min 41 sec) 

% increase in all ip prefetch 428.677
% increase in all ip prefetch 3.12312
*** Reached end of trace for Core: 0 Repeating trace: ../IPC-traces//server_026.champsimtrace.xz
Heartbeat CPU 0 instructions: 60000000 cycles: 30947889 heartbeat IPC: 0.605213 cumulative IPC: 0.605213 (Simulation time: 0 hr 18 min 14 sec) 
Heartbeat CPU 0 instructions: 70000001 cycles: 47287558 heartbeat IPC: 0.612008 cumulative IPC: 0.608591 (Simulation time: 0 hr 20 min 44 sec) 
Heartbeat CPU 0 instructions: 80000003 cycles: 63722022 heartbeat IPC: 0.608478 cumulative IPC: 0.608553 (Simulation time: 0 hr 23 min 16 sec) 
Heartbeat CPU 0 instructions: 90000002 cycles: 80052671 heartbeat IPC: 0.612345 cumulative IPC: 0.609497 (Simulation time: 0 hr 25 min 46 sec) 
Heartbeat CPU 0 instructions: 100000000 cycles: 96427081 heartbeat IPC: 0.610709 cumulative IPC: 0.609739 (Simulation time: 0 hr 29 min 21 sec) 
Finished CPU 0 instructions: 50000000 cycles: 82002287 cumulative IPC: 0.609739 (Simulation time: 0 hr 29 min 21 sec) 

ChampSim completed all CPUs

Region of Interest Statistics

CPU 0 cumulative IPC: 0.609739 instructions: 50000000 cycles: 82002287

CPU 0 Average Load ROB stall cycles: 1.99422e+07
CPU 0 Fraction of times ROB stalled by Loads: 35.935
CPU 0 Percentage of Load stall cycles in Total stall cycles: 2.83775e+08
Issued all: 28271736
Issued LT all: 22480745
rob_not_full_when_issued_lt_all: 22062386
Issued LT one: 17452596
rob_not_full_when_issued_lt_one: 17085590
critical_ip_candidate_identification_operations: 6998058
critical_ip_candidate_identification_operation_per_cycle: 0.0853398
 Total stall cycles: 68427216
 Total load stall cycles: 194179060590169
Unique Load IPs: 13263
CPU 0 NUM of IPS identified critical: 3
CPU 0 Num of Load IPs stalling ROB: 11891
Threshold modification factor: -1
Max PIST entries: 64
Min PIST entries: 0
Avg PIST entries: 32
Trouble in retire width: 0.908716
MaC = Marked as critical.
lt_50_percent_before_Mac: 3
gt_90_percent_before_Mac: 0
gt_75_percent_before_Mac: 0
gt_50_percent_before_Mac: 0
stall_proportion_bin_same_before_after: 0
stall_proportion_bin_lower_before_after: 0
stall_proportion_bin_upper_before_after: 0
average_stall_proportion_before: 0.0556463
average_stall_proportion_after: 0.0557303
Critical IP stalls, total frequency: 112875
Non-critical IP stalls, total frequency: 3386154
Total Freq all stalling IPs: 3499029
Critical_IP_Detector_Accuracy_70: 1
Critical_IP_Detector_Accuracy_80: 1
Critical_IP_Detector_Accuracy_90: 1
Critical_IP_Detector_Coverage_70: 0.00194553
Critical_IP_Detector_Coverage_80: 0.00131406
Critical_IP_Detector_Coverage_90: 0.000853971
stat_90_percent_critical_ip_stalls_freq: 3149331
stat_90_percent_non_critical_ip_stalls_freq: 349698
AVERAGE_ROB_Occupancy_90_Percent_Critical_IP_Stalls: 47.0963
AVERAGE_ROB_Occupancy_90_Percent_Non_Critical_IP_Stalls: 26.2727
Critical_IP_ROB_Stalls_Bucket_0: 2421
Non-critical_IP_ROB_Stalls_Bucket_0: 2467734
Critical_IP_ROB_Stalls_Bucket_1: 51172
Non-critical_IP_ROB_Stalls_Bucket_1: 642701
Critical_IP_ROB_Stalls_Bucket_2: 24637
Non-critical_IP_ROB_Stalls_Bucket_2: 206995
Critical_IP_ROB_Stalls_Bucket_3: 8279
Non-critical_IP_ROB_Stalls_Bucket_3: 44743
Critical_IP_ROB_Stalls_Bucket_4: 5534
Non-critical_IP_ROB_Stalls_Bucket_4: 13761
Critical_IP_ROB_Stalls_Bucket_5: 5086
Non-critical_IP_ROB_Stalls_Bucket_5: 6223
Critical_IP_ROB_Stalls_Bucket_6: 15746
Non-critical_IP_ROB_Stalls_Bucket_6: 3997
0 => IPs accounting for >50 percent of stalls, 1 => 55, 2 => 60, 3 => 65 and so on till 90.
percent50: 50.0016 num IPs:  550
percent55: 55.0071 num IPs: 771
percent60: 60.0175 num IPs: 1013
percent65: 65.0001 num IPs: 1258
percent70: 70.01 num IPs: 1542
percent75: 75.0021 num IPs: 1900
percent80: 80.0011 num IPs: 2283
percent85: 85.007 num IPs: 2811
percent90: 90.0061 num IPs: 3513
Critical_ROB_Stalls_Percent_0_Bucket_0: 1011529
Non-critical_ROB_Stalls_Percent_0_Bucket_0: 1458626
Critical_ROB_Stalls_Percent_0_Bucket_1: 464130
Non-critical_ROB_Stalls_Percent_0_Bucket_1: 229743
Critical_ROB_Stalls_Percent_0_Bucket_2: 181192
Non-critical_ROB_Stalls_Percent_0_Bucket_2: 50440
Critical_ROB_Stalls_Percent_0_Bucket_3: 46711
Non-critical_ROB_Stalls_Percent_0_Bucket_3: 6311
Critical_ROB_Stalls_Percent_0_Bucket_4: 17329
Non-critical_ROB_Stalls_Percent_0_Bucket_4: 1966
Critical_ROB_Stalls_Percent_0_Bucket_5: 10311
Non-critical_ROB_Stalls_Percent_0_Bucket_5: 998
Critical_ROB_Stalls_Percent_0_Bucket_6: 18370
Non-critical_ROB_Stalls_Percent_0_Bucket_6: 1373
Critical_ROB_Stalls_Percent_1_Bucket_0: 1140680
Non-critical_ROB_Stalls_Percent_1_Bucket_0: 1329475
Critical_ROB_Stalls_Percent_1_Bucket_1: 499170
Non-critical_ROB_Stalls_Percent_1_Bucket_1: 194703
Critical_ROB_Stalls_Percent_1_Bucket_2: 190596
Non-critical_ROB_Stalls_Percent_1_Bucket_2: 41036
Critical_ROB_Stalls_Percent_1_Bucket_3: 47747
Non-critical_ROB_Stalls_Percent_1_Bucket_3: 5275
Critical_ROB_Stalls_Percent_1_Bucket_4: 17625
Non-critical_ROB_Stalls_Percent_1_Bucket_4: 1670
Critical_ROB_Stalls_Percent_1_Bucket_5: 10409
Non-critical_ROB_Stalls_Percent_1_Bucket_5: 900
Critical_ROB_Stalls_Percent_1_Bucket_6: 18485
Non-critical_ROB_Stalls_Percent_1_Bucket_6: 1258
Critical_ROB_Stalls_Percent_2_Bucket_0: 1262158
Non-critical_ROB_Stalls_Percent_2_Bucket_0: 1207997
Critical_ROB_Stalls_Percent_2_Bucket_1: 541001
Non-critical_ROB_Stalls_Percent_2_Bucket_1: 152872
Critical_ROB_Stalls_Percent_2_Bucket_2: 201310
Non-critical_ROB_Stalls_Percent_2_Bucket_2: 30322
Critical_ROB_Stalls_Percent_2_Bucket_3: 49028
Non-critical_ROB_Stalls_Percent_2_Bucket_3: 3994
Critical_ROB_Stalls_Percent_2_Bucket_4: 17630
Non-critical_ROB_Stalls_Percent_2_Bucket_4: 1665
Critical_ROB_Stalls_Percent_2_Bucket_5: 10409
Non-critical_ROB_Stalls_Percent_2_Bucket_5: 900
Critical_ROB_Stalls_Percent_2_Bucket_6: 18485
Non-critical_ROB_Stalls_Percent_2_Bucket_6: 1258
Critical_ROB_Stalls_Percent_3_Bucket_0: 1405269
Non-critical_ROB_Stalls_Percent_3_Bucket_0: 1064886
Critical_ROB_Stalls_Percent_3_Bucket_1: 568309
Non-critical_ROB_Stalls_Percent_3_Bucket_1: 125564
Critical_ROB_Stalls_Percent_3_Bucket_2: 204616
Non-critical_ROB_Stalls_Percent_3_Bucket_2: 27016
Critical_ROB_Stalls_Percent_3_Bucket_3: 49383
Non-critical_ROB_Stalls_Percent_3_Bucket_3: 3639
Critical_ROB_Stalls_Percent_3_Bucket_4: 17890
Non-critical_ROB_Stalls_Percent_3_Bucket_4: 1405
Critical_ROB_Stalls_Percent_3_Bucket_5: 10410
Non-critical_ROB_Stalls_Percent_3_Bucket_5: 899
Critical_ROB_Stalls_Percent_3_Bucket_6: 18485
Non-critical_ROB_Stalls_Percent_3_Bucket_6: 1258
Critical_ROB_Stalls_Percent_4_Bucket_0: 1550736
Non-critical_ROB_Stalls_Percent_4_Bucket_0: 919419
Critical_ROB_Stalls_Percent_4_Bucket_1: 592172
Non-critical_ROB_Stalls_Percent_4_Bucket_1: 101701
Critical_ROB_Stalls_Percent_4_Bucket_2: 209661
Non-critical_ROB_Stalls_Percent_4_Bucket_2: 21971
Critical_ROB_Stalls_Percent_4_Bucket_3: 50012
Non-critical_ROB_Stalls_Percent_4_Bucket_3: 3010
Critical_ROB_Stalls_Percent_4_Bucket_4: 18098
Non-critical_ROB_Stalls_Percent_4_Bucket_4: 1197
Critical_ROB_Stalls_Percent_4_Bucket_5: 10462
Non-critical_ROB_Stalls_Percent_4_Bucket_5: 847
Critical_ROB_Stalls_Percent_4_Bucket_6: 18521
Non-critical_ROB_Stalls_Percent_4_Bucket_6: 1222
Critical_ROB_Stalls_Percent_5_Bucket_0: 1692866
Non-critical_ROB_Stalls_Percent_5_Bucket_0: 777289
Critical_ROB_Stalls_Percent_5_Bucket_1: 616693
Non-critical_ROB_Stalls_Percent_5_Bucket_1: 77180
Critical_ROB_Stalls_Percent_5_Bucket_2: 217280
Non-critical_ROB_Stalls_Percent_5_Bucket_2: 14352
Critical_ROB_Stalls_Percent_5_Bucket_3: 50378
Non-critical_ROB_Stalls_Percent_5_Bucket_3: 2644
Critical_ROB_Stalls_Percent_5_Bucket_4: 18130
Non-critical_ROB_Stalls_Percent_5_Bucket_4: 1165
Critical_ROB_Stalls_Percent_5_Bucket_5: 10466
Non-critical_ROB_Stalls_Percent_5_Bucket_5: 843
Critical_ROB_Stalls_Percent_5_Bucket_6: 18524
Non-critical_ROB_Stalls_Percent_5_Bucket_6: 1219
Critical_ROB_Stalls_Percent_6_Bucket_0: 1849147
Non-critical_ROB_Stalls_Percent_6_Bucket_0: 621008
Critical_ROB_Stalls_Percent_6_Bucket_1: 631794
Non-critical_ROB_Stalls_Percent_6_Bucket_1: 62079
Critical_ROB_Stalls_Percent_6_Bucket_2: 220660
Non-critical_ROB_Stalls_Percent_6_Bucket_2: 10972
Critical_ROB_Stalls_Percent_6_Bucket_3: 50500
Non-critical_ROB_Stalls_Percent_6_Bucket_3: 2522
Critical_ROB_Stalls_Percent_6_Bucket_4: 18148
Non-critical_ROB_Stalls_Percent_6_Bucket_4: 1147
Critical_ROB_Stalls_Percent_6_Bucket_5: 10476
Non-critical_ROB_Stalls_Percent_6_Bucket_5: 833
Critical_ROB_Stalls_Percent_6_Bucket_6: 18528
Non-critical_ROB_Stalls_Percent_6_Bucket_6: 1215
Critical_ROB_Stalls_Percent_7_Bucket_0: 1997797
Non-critical_ROB_Stalls_Percent_7_Bucket_0: 472358
Critical_ROB_Stalls_Percent_7_Bucket_1: 653441
Non-critical_ROB_Stalls_Percent_7_Bucket_1: 40432
Critical_ROB_Stalls_Percent_7_Bucket_2: 224165
Non-critical_ROB_Stalls_Percent_7_Bucket_2: 7467
Critical_ROB_Stalls_Percent_7_Bucket_3: 51130
Non-critical_ROB_Stalls_Percent_7_Bucket_3: 1892
Critical_ROB_Stalls_Percent_7_Bucket_4: 18447
Non-critical_ROB_Stalls_Percent_7_Bucket_4: 848
Critical_ROB_Stalls_Percent_7_Bucket_5: 10722
Non-critical_ROB_Stalls_Percent_7_Bucket_5: 587
Critical_ROB_Stalls_Percent_7_Bucket_6: 18713
Non-critical_ROB_Stalls_Percent_7_Bucket_6: 1030
Critical_ROB_Stalls_Percent_8_Bucket_0: 2160252
Non-critical_ROB_Stalls_Percent_8_Bucket_0: 309903
Critical_ROB_Stalls_Percent_8_Bucket_1: 664349
Non-critical_ROB_Stalls_Percent_8_Bucket_1: 29524
Critical_ROB_Stalls_Percent_8_Bucket_2: 225700
Non-critical_ROB_Stalls_Percent_8_Bucket_2: 5932
Critical_ROB_Stalls_Percent_8_Bucket_3: 51148
Non-critical_ROB_Stalls_Percent_8_Bucket_3: 1874
Critical_ROB_Stalls_Percent_8_Bucket_4: 18447
Non-critical_ROB_Stalls_Percent_8_Bucket_4: 848
Critical_ROB_Stalls_Percent_8_Bucket_5: 10722
Non-critical_ROB_Stalls_Percent_8_Bucket_5: 587
Critical_ROB_Stalls_Percent_8_Bucket_6: 18713
Non-critical_ROB_Stalls_Percent_8_Bucket_6: 1030
Average ROB occupancy Load Stall Begin: 36.9463
Average ROB occupancy Load Stall End: 45.0151
Min ROB occupancy Load Stall Begin: 1
Max ROB occupancy Load Stall Begin: 352
Min ROB occupancy Load Stall End: 1
Max ROB occupancy Load Stall End: 352
Average ROB occupancy Critical Load Stall Begin: 141.311
Average ROB occupancy Critical Load Stall End: 152.341
Min ROB occupancy Critical Load Stall Begin: 3
Max ROB occupancy Critical Load Stall Begin: 352
Min ROB occupancy Critical Load Stall End: 5
Max ROB occupancy Critical Load Stall End: 352
 ROB Load Stall Begin Bucket Count 0: 2704660
 ROB Load Stall End Bucket Count 0: 2470155
 ROB Critical Load Stall Begin Bucket Count 0: 3048
 ROB Critical Load Stall End Bucket Count 0: 2404
 ROB Load Stall Begin Bucket Count 1: 537067
 ROB Load Stall End Bucket Count 1: 693873
 ROB Critical Load Stall Begin Bucket Count 1: 57518
 ROB Critical Load Stall End Bucket Count 1: 51007
 ROB Load Stall Begin Bucket Count 2: 173001
 ROB Load Stall End Bucket Count 2: 231632
 ROB Critical Load Stall Begin Bucket Count 2: 20217
 ROB Critical Load Stall End Bucket Count 2: 24586
 ROB Load Stall Begin Bucket Count 3: 39171
 ROB Load Stall End Bucket Count 3: 53022
 ROB Critical Load Stall Begin Bucket Count 3: 6065
 ROB Critical Load Stall End Bucket Count 3: 8262
 ROB Load Stall Begin Bucket Count 4: 16450
 ROB Load Stall End Bucket Count 4: 19295
 ROB Critical Load Stall Begin Bucket Count 4: 5438
 ROB Critical Load Stall End Bucket Count 4: 5527
 ROB Load Stall Begin Bucket Count 5: 10416
 ROB Load Stall End Bucket Count 5: 11309
 ROB Critical Load Stall Begin Bucket Count 5: 5057
 ROB Critical Load Stall End Bucket Count 5: 5079
 ROB Load Stall Begin Bucket Count 6: 18264
 ROB Load Stall End Bucket Count 6: 19743
 ROB Critical Load Stall Begin Bucket Count 6: 15186
 ROB Critical Load Stall End Bucket Count 6: 15664
PIST Tag Read Accesses: 2353186
PIST Read Accesses: 1176593
PIST Tag Write Accesses: 2353186
PIST Write Accesses: 1176593
Criticality detector called times: 3386500
Max global_stall_cycles_count: 1979505
Threshold Modified: 1 times, factor: -1
Sturdy critical IP cache stats: 
 Unused entries: 0
CIC Tag Read Accesses: 0
CIC Read Accesses: 0
CIC Tag Write Accesses: 0
CIC Write Accesses: 0
Wobbly critical IP cache stats: 
 Unused entries: 125
CIC Tag Read Accesses: 85536524
CIC Read Accesses: 0
CIC Tag Write Accesses: 3
CIC Write Accesses: 0
ITLB TOTAL     ACCESS:   10083864  HIT:    9433098  MISS:     650766  HIT %:    93.5465  MISS %:    6.45354   MPKI: 13.0153
ITLB LOAD TRANSLATION ACCESS:    8120412  HIT:    8027170  MISS:      93242  HIT %:    98.8518  MISS %:    1.14824   MPKI: 1.86484
ITLB TRANSLATION FROM L1D PREFETCHER ACCESS:    1963452  HIT:    1405928  MISS:     557524  HIT %:    71.6049  MISS %:    28.3951   MPKI: 11.1505
ITLBprefetch_cycle_count: 0 prefetches_per_prefetch_cycle: -nan
ITLB PREFETCH  REQUESTED:          0  ISSUED:          0  USEFUL:     452643  USELESS:     104879
ITLB USEFUL LOAD PREFETCHES:     452643 PREFETCH ISSUED TO LOWER LEVEL:          0  ACCURACY: inf
ITLB TIMELY PREFETCHES:     452643 LATE PREFETCHES: 363 DROPPED PREFETCHES: 3919
ITLB PREFETCHES SAME FILL-ORIGIN LEVEL: 0 DIFFERENT FILL-ORIGIN LEVEL: 0
ITLB AVERAGE MISS LATENCY: 33309.1 cycles
ITLB RQ	ACCESS:   15122665	FORWARD:          0	MERGED:    4996715	TO_CACHE:   10125950

DTLB TOTAL     ACCESS:   11537490  HIT:   11060114  MISS:     477376  HIT %:    95.8624  MISS %:    4.13761   MPKI: 9.54752
DTLB LOAD TRANSLATION ACCESS:   11537490  HIT:   11060114  MISS:     477376  HIT %:    95.8624  MISS %:    4.13761   MPKI: 9.54752
DTLBprefetch_cycle_count: 0 prefetches_per_prefetch_cycle: -nan
DTLB PREFETCH  REQUESTED:          0  ISSUED:          0  USEFUL:          0  USELESS:          0
DTLB USEFUL LOAD PREFETCHES:          0 PREFETCH ISSUED TO LOWER LEVEL:          0  ACCURACY: -nan
DTLB TIMELY PREFETCHES:          0 LATE PREFETCHES: 0 DROPPED PREFETCHES: 0
DTLB PREFETCHES SAME FILL-ORIGIN LEVEL: 0 DIFFERENT FILL-ORIGIN LEVEL: 0
DTLB AVERAGE MISS LATENCY: 9.25793 cycles
DTLB RQ	ACCESS:   15006935	FORWARD:          0	MERGED:    3443180	TO_CACHE:   11563755

STLB TOTAL     ACCESS:    1412842  HIT:    1410745  MISS:       2097  HIT %:    99.8516  MISS %:   0.148424   MPKI: 0.04194
STLB LOAD TRANSLATION ACCESS:     570255  HIT:     568247  MISS:       2008  HIT %:    99.6479  MISS %:   0.352123   MPKI: 0.04016
STLB TRANSLATION FROM L1D PREFETCHER ACCESS:     842587  HIT:     842498  MISS:         89  HIT %:    99.9894  MISS %:  0.0105627   MPKI: 0.00178
STLBprefetch_cycle_count: 0 prefetches_per_prefetch_cycle: -nan
STLB PREFETCH  REQUESTED:          0  ISSUED:          0  USEFUL:         80  USELESS:         10
STLB USEFUL LOAD PREFETCHES:         80 PREFETCH ISSUED TO LOWER LEVEL:          0  ACCURACY: inf
STLB TIMELY PREFETCHES:         80 LATE PREFETCHES: 0 DROPPED PREFETCHES: 3919
STLB PREFETCHES SAME FILL-ORIGIN LEVEL: 0 DIFFERENT FILL-ORIGIN LEVEL: 0
STLB AVERAGE MISS LATENCY: 61.9762 cycles
STLB RQ	ACCESS:    1429194	FORWARD:          0	MERGED:      12433	TO_CACHE:    1416761

STLB Hit, L1D data hit: 0
STLB Hit, L2C data hit: 0
STLB Hit, LLC data hit: 0
STLB Hit, LLC data miss: 0
STLB STLB hints to L2: 0
L1D TOTAL     ACCESS:   14725327  HIT:   13594433  MISS:    1130894  HIT %:    92.3201  MISS %:    7.67992   MPKI: 22.6179
L1D LOAD      ACCESS:    8142184  HIT:    7382518  MISS:     759666  HIT %:      90.67  MISS %:       9.33   MPKI: 15.1933
L1D RFO       ACCESS:    6334026  HIT:    6040547  MISS:     293479  HIT %:    95.3666  MISS %:    4.63337   MPKI: 5.86958
L1D PREFETCH  ACCESS:     249117  HIT:     171368  MISS:      77749  HIT %:    68.7902  MISS %:    31.2098   MPKI: 1.55498
L1Dprefetch_cycle_count: 296676 prefetches_per_prefetch_cycle: 2.00354
L1D PREFETCH  REQUESTED:     594402  ISSUED:     594402  USEFUL:      27374  USELESS:      50401
L1D USEFUL LOAD PREFETCHES:      27374 PREFETCH ISSUED TO LOWER LEVEL:     113239  ACCURACY: 24.1737
L1D TIMELY PREFETCHES:      27374 LATE PREFETCHES: 35023 DROPPED PREFETCHES: 0
L1D PREFETCHES SAME FILL-ORIGIN LEVEL: 113239 DIFFERENT FILL-ORIGIN LEVEL: 0
L1D AVERAGE MISS LATENCY: 1.71622e+06 cycles
L1D RQ	ACCESS:   11645771	FORWARD:          0	MERGED:    3330580	TO_CACHE:    8176596
L1D WQ	ACCESS:    6901339	FORWARD:     138731	MERGED:      71000	TO_CACHE:    6830339
L1D PQ	ACCESS:     297269	FORWARD:          0	MERGED:          0	TO_CACHE:     297133

L1D UNIQUE REGIONS ACCESSED: 0
L1D REGIONS CONFLICTS: 0
L1D Cross Page Prefetch Requests: 0
L1D Same Page Prefetch Requests: 821879
L1D ROI Sum of L1D PQ occupancy: 3848033
L1D PREFETCHES PUSHED FROM L2C: 0
L1I TOTAL     ACCESS:   14961397  HIT:   10892246  MISS:    4069151  HIT %:    72.8023  MISS %:    27.1977   MPKI: 81.383
L1I LOAD      ACCESS:    9558682  HIT:    9276304  MISS:     282378  HIT %:    97.0458  MISS %:    2.95415   MPKI: 5.64756
L1I PREFETCH  ACCESS:    5402715  HIT:    1615942  MISS:    3786773  HIT %:    29.9098  MISS %:    70.0902   MPKI: 75.7355
L1Iprefetch_cycle_count: 0 prefetches_per_prefetch_cycle: inf
L1I PREFETCH  REQUESTED:    5668201  ISSUED:    5660679  USEFUL:    2586179  USELESS:    1200607
L1I USEFUL LOAD PREFETCHES:    2586179 PREFETCH ISSUED TO LOWER LEVEL:    3817243  ACCURACY: 67.7499
L1I TIMELY PREFETCHES:    2586179 LATE PREFETCHES: 30474 DROPPED PREFETCHES: 9280
L1I PREFETCHES SAME FILL-ORIGIN LEVEL: 3817243 DIFFERENT FILL-ORIGIN LEVEL: 0
L1I AVERAGE MISS LATENCY: 406661 cycles
L1I RQ	ACCESS:   13501851	FORWARD:          0	MERGED:    3916703	TO_CACHE:    9585148
L1I PQ	ACCESS:    5660679	FORWARD:          0	MERGED:     123162	TO_CACHE:    5537517

BTB TOTAL     ACCESS:    5981441  HIT:    3992143  MISS:    1989298  HIT %:    66.7422  MISS %:    33.2578   MPKI: 39.786
BTB BRANCH_DIRECT_JUMP	ACCESS:     522043  HIT:     347789  MISS:     174254
BTB BRANCH_INDIRECT	ACCESS:     204034  HIT:     166604  MISS:      37430
BTB BRANCH_CONDITIONAL	ACCESS:    3043077  HIT:    2486506  MISS:     556571
BTB BRANCH_DIRECT_CALL	ACCESS:     932385  HIT:     529353  MISS:     403032
BTB BRANCH_INDIRECT_CALL	ACCESS:     173762  HIT:      95752  MISS:      78010
BTB BRANCH_RETURN	ACCESS:    1106140  HIT:     366139  MISS:     740001
BTB BRANCH_OTHER ACCESS:          0  HIT:          0  MISS:          0

L2C TOTAL     ACCESS:    7643191  HIT:    6351780  MISS:    1291411  HIT %:    83.1038  MISS %:    16.8962   MPKI: 25.8282
L2C LOAD      ACCESS:     976543  HIT:     750393  MISS:     226150  HIT %:    76.8418  MISS %:    23.1582   MPKI: 4.523
L2C DATA LOAD MPKI: 3.42972
L2C INSTRUCTION LOAD MPKI: 1.09328
L2C RFO       ACCESS:     293011  HIT:     193097  MISS:      99914  HIT %:    65.9009  MISS %:    34.0991   MPKI: 1.99828
L2C PREFETCH  ACCESS:    5843462  HIT:    4926062  MISS:     917400  HIT %:    84.3004  MISS %:    15.6996   MPKI: 18.348
L2C DATA PREFETCH MPKI: 7.23754
L2C INSTRUCTION PREFETCH MPKI: 11.1105
L2C WRITEBACK ACCESS:     521320  HIT:     475175  MISS:      46145  HIT %:    91.1484  MISS %:    8.85157   MPKI: 0.9229
L2C LOAD TRANSLATION ACCESS:       2106  HIT:        517  MISS:       1589  HIT %:    24.5489  MISS %:    75.4511   MPKI: 0.03178
L2C TRANSLATION FROM L1D PREFETCHER ACCESS:       6749  HIT:       6536  MISS:        213  HIT %:     96.844  MISS %:    3.15602   MPKI: 0.00426
L2Cprefetch_cycle_count: 4283487 prefetches_per_prefetch_cycle: 1.00075
L2C PREFETCH  REQUESTED:    4286691  ISSUED:    4286690  USEFUL:      42274  USELESS:     875416
L2C USEFUL LOAD PREFETCHES:      42274 PREFETCH ISSUED TO LOWER LEVEL:     920315  ACCURACY: 4.59343
L2C TIMELY PREFETCHES:      42274 LATE PREFETCHES: 2916 DROPPED PREFETCHES: 0
L2C PREFETCHES SAME FILL-ORIGIN LEVEL: 320527 DIFFERENT FILL-ORIGIN LEVEL: 0
L2C AVERAGE MISS LATENCY: 32.1238 cycles
L2C RQ	ACCESS:    1278414	FORWARD:          0	MERGED:          0	TO_CACHE:    1278409
L2C WQ	ACCESS:     521320	FORWARD:         22	MERGED:          0	TO_CACHE:     521320
L2C PQ	ACCESS:    8217172	FORWARD:          0	MERGED:    2353318	TO_CACHE:    5863837

L2C Instructions Evicting Data 317639
L2C Translations Evicting Data 1221
L2C Data Evicting Data 337221
L2C Instructions Evicting Instructions 292001
L2C Translations Evicting Instructions 538
L2C Data Evicting Instructions 294864
L2C Instructions Evicting Translations 547
L2C Translations Evicting Translations 43
L2C Data Evicting Translations 1192
L2C Dense regions hint from L2: 0
PSCL5 TOTAL     ACCESS:       6016  HIT:       6016  MISS:          0  HIT %:        100  MISS %:          0   MPKI: 0
PSCL5 LOAD TRANSLATION ACCESS:       2008  HIT:       2008  MISS:          0  HIT %:        100  MISS %:          0   MPKI: 0
PSCL5 TRANSLATION FROM L1D PREFETCHER ACCESS:       4008  HIT:       4008  MISS:          0  HIT %:        100  MISS %:          0   MPKI: 0
PSCL5prefetch_cycle_count: 0 prefetches_per_prefetch_cycle: -nan
PSCL5 PREFETCH  REQUESTED:          0  ISSUED:          0  USEFUL:          0  USELESS:          0
PSCL5 USEFUL LOAD PREFETCHES:          0 PREFETCH ISSUED TO LOWER LEVEL:          0  ACCURACY: -nan
PSCL5 TIMELY PREFETCHES:          0 LATE PREFETCHES: 0 DROPPED PREFETCHES: 0
PSCL5 PREFETCHES SAME FILL-ORIGIN LEVEL: 0 DIFFERENT FILL-ORIGIN LEVEL: 0

PSCL4 TOTAL     ACCESS:       5979  HIT:       5976  MISS:          3  HIT %:    99.9498  MISS %:  0.0501756   MPKI: 6e-05
PSCL4 LOAD TRANSLATION ACCESS:       1972  HIT:       1969  MISS:          3  HIT %:    99.8479  MISS %:    0.15213   MPKI: 6e-05
PSCL4 TRANSLATION FROM L1D PREFETCHER ACCESS:       4007  HIT:       4007  MISS:          0  HIT %:        100  MISS %:          0   MPKI: 0
PSCL4prefetch_cycle_count: 0 prefetches_per_prefetch_cycle: -nan
PSCL4 PREFETCH  REQUESTED:          0  ISSUED:          0  USEFUL:          0  USELESS:          0
PSCL4 USEFUL LOAD PREFETCHES:          0 PREFETCH ISSUED TO LOWER LEVEL:          0  ACCURACY: -nan
PSCL4 TIMELY PREFETCHES:          0 LATE PREFETCHES: 0 DROPPED PREFETCHES: 0
PSCL4 PREFETCHES SAME FILL-ORIGIN LEVEL: 0 DIFFERENT FILL-ORIGIN LEVEL: 0

PSCL3 TOTAL     ACCESS:       5982  HIT:       5979  MISS:          3  HIT %:    99.9498  MISS %:  0.0501505   MPKI: 6e-05
PSCL3 LOAD TRANSLATION ACCESS:       1975  HIT:       1972  MISS:          3  HIT %:    99.8481  MISS %:   0.151899   MPKI: 6e-05
PSCL3 TRANSLATION FROM L1D PREFETCHER ACCESS:       4007  HIT:       4007  MISS:          0  HIT %:        100  MISS %:          0   MPKI: 0
PSCL3prefetch_cycle_count: 0 prefetches_per_prefetch_cycle: -nan
PSCL3 PREFETCH  REQUESTED:          0  ISSUED:          0  USEFUL:          0  USELESS:          0
PSCL3 USEFUL LOAD PREFETCHES:          0 PREFETCH ISSUED TO LOWER LEVEL:          0  ACCURACY: -nan
PSCL3 TIMELY PREFETCHES:          0 LATE PREFETCHES: 0 DROPPED PREFETCHES: 0
PSCL3 PREFETCHES SAME FILL-ORIGIN LEVEL: 0 DIFFERENT FILL-ORIGIN LEVEL: 0

PSCL2 TOTAL     ACCESS:       3291  HIT:       3184  MISS:        107  HIT %:    96.7487  MISS %:    3.25129   MPKI: 0.00214
PSCL2 LOAD TRANSLATION ACCESS:       2022  HIT:       1915  MISS:        107  HIT %:    94.7082  MISS %:    5.29179   MPKI: 0.00214
PSCL2 TRANSLATION FROM L1D PREFETCHER ACCESS:       1269  HIT:       1269  MISS:          0  HIT %:        100  MISS %:          0   MPKI: 0
PSCL2prefetch_cycle_count: 0 prefetches_per_prefetch_cycle: -nan
PSCL2 PREFETCH  REQUESTED:          0  ISSUED:          0  USEFUL:          0  USELESS:          0
PSCL2 USEFUL LOAD PREFETCHES:          0 PREFETCH ISSUED TO LOWER LEVEL:          0  ACCURACY: -nan
PSCL2 TIMELY PREFETCHES:          0 LATE PREFETCHES: 0 DROPPED PREFETCHES: 0
PSCL2 PREFETCHES SAME FILL-ORIGIN LEVEL: 0 DIFFERENT FILL-ORIGIN LEVEL: 0

LLC TOTAL     ACCESS:    1400983  HIT:    1376555  MISS:      24428  HIT %:    98.2564  MISS %:    1.74363   MPKI: 0.48856
LLC LOAD      ACCESS:     223601  HIT:     218878  MISS:       4723  HIT %:    97.8878  MISS %:    2.11224   MPKI: 0.09446
LLC RFO       ACCESS:      99545  HIT:      87471  MISS:      12074  HIT %:    87.8708  MISS %:    12.1292   MPKI: 0.24148
LLC PREFETCH  ACCESS:     920316  HIT:     913031  MISS:       7285  HIT %:    99.2084  MISS %:   0.791576   MPKI: 0.1457
LLC WRITEBACK ACCESS:     155719  HIT:     155511  MISS:        208  HIT %:    99.8664  MISS %:   0.133574   MPKI: 0.00416
LLC LOAD TRANSLATION ACCESS:       1589  HIT:       1463  MISS:        126  HIT %:    92.0705  MISS %:    7.92952   MPKI: 0.00252
LLC TRANSLATION FROM L1D PREFETCHER ACCESS:        213  HIT:        201  MISS:         12  HIT %:    94.3662  MISS %:     5.6338   MPKI: 0.00024
LLCprefetch_cycle_count: 0 prefetches_per_prefetch_cycle: -nan
LLC PREFETCH  REQUESTED:          0  ISSUED:          0  USEFUL:       1539  USELESS:       8332
LLC USEFUL LOAD PREFETCHES:       1539 PREFETCH ISSUED TO LOWER LEVEL:       7285  ACCURACY: 21.1256
LLC TIMELY PREFETCHES:       1539 LATE PREFETCHES: 0 DROPPED PREFETCHES: 0
LLC PREFETCHES SAME FILL-ORIGIN LEVEL: 0 DIFFERENT FILL-ORIGIN LEVEL: 0
LLC AVERAGE MISS LATENCY: 169.482 cycles
LLC RQ	ACCESS:     324950	FORWARD:          0	MERGED:          0	TO_CACHE:     324948
LLC WQ	ACCESS:     155719	FORWARD:          2	MERGED:          0	TO_CACHE:     155719
LLC PQ	ACCESS:     920315	FORWARD:          0	MERGED:          0	TO_CACHE:     920315

LLC Dense regions hint to LLC: 0

RAW hits: 970049
Loads Generated: 12615820
Loads sent to L1D: 11645771
Stores Generated: 6901350
Stores sent to L1D: 6901339
Major fault: 0 Minor fault: 2264
Allocated PAGES: 2264
I-Shadow cache 408 bytes
Touched + WorthPF tables 6144 bytes 
MMA filter 174 bytes 
FNL filter 272 bytes 
TOTAL PREFETCHER STORAGE SIZE: 25174 bytes
CPU 0 L1I next line prefetcher final stats

total_pref_operate_instances_l1: 8176596
dynamic_config_counter_instances_1: 8171743
dynamic_config_counter_instances_2: 2535
dynamic_config_counter_instances_3: 2318
dynamic_config_counter_instances_4: 0
dynamic_config_counter_instances_5: 0
stream: 
stream:times selected: 1694645
stream:pref_filled: 88685
stream:pref_useful: 19645
stream:pref_late: 5558
stream:misses: 5570
stream:misses_by_poll: 0

CS: 
CS:times selected: 230405
CS:pref_filled: 66498
CS:pref_useful: 48255
CS:pref_late: 22581
CS:misses: 41039
CS:misses_by_poll: 17

CPLX: 
CPLX:times selected: 1461284
CPLX:pref_filled: 21282
CPLX:pref_useful: 5786
CPLX:pref_late: 2189
CPLX:misses: 69595
CPLX:misses_by_poll: 0

NL_L1: 
NL:times selected: 371804
NL:pref_filled: 54003
NL:pref_useful: 9961
NL:pref_late: 13569
NL:misses: 76722
NL:misses_by_poll: 20

total selections: 3758138
total_filled: 77749
total_useful: 27374
total_late: 47773
total_polluted: 37
total_misses_after_warmup: 794078
conflicts: 2951246
Degree Incremented Times: 0
Degree Decremented Times: 183703

L1 IP Table Write Accesses: 4943205
L1 IP Table Read Accesses: 1991959
L1 RST Write Accesses: 860498
L1 RST Read Accesses: 1720996
L1 CSPT Write Accesses: 860498
L1 CSPT Read Accesses: 860681
L1 RR Filter Tag Write Accesses: 297269
L1 RR Filter Tag Read Accesses: 13783824
L1 IP Table Tag Write Accesses: 8176596
L1 IP Table Tag Read Accesses: 8176596
L1 RST Tag Write Accesses: 0
L1 RST Tag Read Accesses: 7407013
L1 RR Filter Write Accesses: 0
L1 RR Filter Read Accesses: 486212
test: 238492
total_pref_operate_instances_l2: 4597587
dynamic_config_counter_instances_l2_1: 4565399
dynamic_config_counter_instances_l2_2: 16963
dynamic_config_counter_instances_l2_3: 15225
dynamic_config_counter_instances_l2_4: 0
dynamic_config_counter_instances_l2_5: 0
L2 IP Table Read Accesses: 4838377
L2 IP Table Write Accesses: 8996035
L2 IP Table Tag Read Accesses: 4597587
L2 IP Table Tag Write Accesses: 4597587

DRAM Statistics
 CHANNEL 0
 RQ ROW_BUFFER_HIT:       8060  ROW_BUFFER_MISS:      16150
 DBUS_CONGESTED:         22
 WQ ROW_BUFFER_HIT:       1229  ROW_BUFFER_MISS:      10793  FULL:          0

 AVG_CONGESTED_CYCLE: 2
 All warmup complete: 2
Channel 0 Bank busy for read cycles: 0
Channel 0 Bank busy for write cycles: 0
Channel 0
Rank 0
0banks busy for read cycles: 79967085
0banks busy for write cycles: 2761
1banks busy for read cycles: 615466
1banks busy for write cycles: 323568
2banks busy for read cycles: 360940
2banks busy for write cycles: 124957
3banks busy for read cycles: 78669
3banks busy for write cycles: 63658
4banks busy for read cycles: 52758
4banks busy for write cycles: 47472
5banks busy for read cycles: 41520
5banks busy for write cycles: 38041
6banks busy for read cycles: 35088
6banks busy for write cycles: 38916
7banks busy for read cycles: 29542
7banks busy for write cycles: 35562
8banks busy for read cycles: 56040
8banks busy for write cycles: 90245

CPU 0 Branch Prediction Accuracy: 99.822% MPKI: 0.32584 Average ROB Occupancy at Mispredict: 75.3324
Branch types
NOT_BRANCH: 40848387 81.6968%
BRANCH_DIRECT_JUMP: 522043 1.04409%
BRANCH_INDIRECT: 204034 0.408068%
BRANCH_CONDITIONAL: 6212933 12.4259%
BRANCH_DIRECT_CALL: 932385 1.86477%
BRANCH_INDIRECT_CALL: 173762 0.347524%
BRANCH_RETURN: 1106140 2.21228%
BRANCH_OTHER: 0 0%

DRAM PAGES: 1048576
Allocated PAGES: 2264
