
*** ChampSim Multicore Out-of-Order Simulator ***

Warmup Instructions: 50000000
Simulation Instructions: 50000000
Number of CPUs: 1
LLC sets: 2048
LLC ways: 16
Off-chip DRAM Size: 4096 MB Channels: 1 Width: 64-bit Data Rate: 6400 MT/s
CPU 0 runs ../IPC-traces//server_022.champsimtrace.xz
.xz
BTB has LRU replacement policy
ITLB has LRU replacement policy
DTLB has LRU replacement policy
STLB has LRU replacement policy
CPU 0 L1I next line prefetcher
L1I has LRU replacement policy
IP Table Entries: 64
L1D has LRU replacement policy
Initialize SRRIP state for L2C
Initialize DRRIP state for LLC
Heartbeat CPU 0 instructions: 10000001 cycles: 3239514 heartbeat IPC: 3.08688 cumulative IPC: 3.08688 (Simulation time: 0 hr 5 min 1 sec) 
Heartbeat CPU 0 instructions: 20000000 cycles: 6490414 heartbeat IPC: 3.07607 cumulative IPC: 3.08147 (Simulation time: 0 hr 9 min 46 sec) 
Heartbeat CPU 0 instructions: 30000002 cycles: 9734532 heartbeat IPC: 3.0825 cumulative IPC: 3.08181 (Simulation time: 0 hr 14 min 22 sec) 
Heartbeat CPU 0 instructions: 40000003 cycles: 12982818 heartbeat IPC: 3.07855 cumulative IPC: 3.081 (Simulation time: 0 hr 17 min 57 sec) 
Heartbeat CPU 0 instructions: 50000003 cycles: 16224603 heartbeat IPC: 3.08472 cumulative IPC: 3.08174 (Simulation time: 0 hr 21 min 12 sec) 

Warmup complete CPU 0 instructions: 50000003 cycles: 16224603 (Simulation time: 0 hr 21 min 12 sec) 

Heartbeat CPU 0 instructions: 60000000 cycles: 46323361 heartbeat IPC: 0.33224 cumulative IPC: 0.33224 (Simulation time: 0 hr 26 min 46 sec) 
Heartbeat CPU 0 instructions: 70000001 cycles: 76730074 heartbeat IPC: 0.328875 cumulative IPC: 0.330549 (Simulation time: 0 hr 32 min 27 sec) 
Heartbeat CPU 0 instructions: 80000000 cycles: 104707909 heartbeat IPC: 0.357426 cumulative IPC: 0.339047 (Simulation time: 0 hr 39 min 44 sec) 
Heartbeat CPU 0 instructions: 90000003 cycles: 132900385 heartbeat IPC: 0.354705 cumulative IPC: 0.34283 (Simulation time: 0 hr 46 min 51 sec) 
Heartbeat CPU 0 instructions: 100000000 cycles: 160751001 heartbeat IPC: 0.359058 cumulative IPC: 0.345958 (Simulation time: 0 hr 53 min 18 sec) 
Finished CPU 0 instructions: 50000001 cycles: 144526399 cumulative IPC: 0.345958 (Simulation time: 0 hr 53 min 18 sec) 

ChampSim completed all CPUs

Region of Interest Statistics

CPU 0 cumulative IPC: 0.345958 instructions: 50000001 cycles: 144526399

CPU 0 Average Load ROB stall cycles: 4.12593e+07
CPU 0 Fraction of times ROB stalled by Loads: 45.8682
CPU 0 Percentage of Load stall cycles in Total stall cycles: 2.31419e+08
Issued all: 88015632
Issued LT all: 82755160
rob_not_full_when_issued_lt_all: 16751612
Issued LT one: 76883057
rob_not_full_when_issued_lt_one: 12734345
 Total stall cycles: 126839810
 Total load stall cycles: 293530951916973
Unique Load IPs: 6167
CPU 0 NUM of IPS identified critical: 5
CPU 0 Num of Load IPs stalling ROB: 0
Threshold modification factor: 0
Trouble in retire width: -nan
MaC = Marked as critical.
lt_50_percent_before_Mac: 0
gt_90_percent_before_Mac: 1
gt_75_percent_before_Mac: 1
gt_50_percent_before_Mac: 2
stall_proportion_bin_same_before_after: 0
stall_proportion_bin_lower_before_after: 0
stall_proportion_bin_upper_before_after: 0
average_stall_proportion_before: 0.0132682
average_stall_proportion_after: 0.0153814
Critical_IP_Detector_Accuracy_70: 0
Critical_IP_Detector_Accuracy_80: 0
Critical_IP_Detector_Accuracy_90: 0
Critical_IP_Detector_Coverage_70: 0
Critical_IP_Detector_Coverage_80: 0
Critical_IP_Detector_Coverage_90: 0
stat_90_percent_critical_ip_stalls_freq: 295118
stat_90_percent_non_critical_ip_stalls_freq: 18446744073709256498
AVERAGE_ROB_Occupancy_90_Percent_Critical_IP_Stalls: 316.653
AVERAGE_ROB_Occupancy_90_Percent_Non_Critical_IP_Stalls: 2.97509e-11
Critical_IP_ROB_Stalls_Bucket_0: 14
Non-critical_IP_ROB_Stalls_Bucket_0: 493481
Critical_IP_ROB_Stalls_Bucket_1: 35
Non-critical_IP_ROB_Stalls_Bucket_1: 610054
Critical_IP_ROB_Stalls_Bucket_2: 4
Non-critical_IP_ROB_Stalls_Bucket_2: 418627
Critical_IP_ROB_Stalls_Bucket_3: 89
Non-critical_IP_ROB_Stalls_Bucket_3: 255290
Critical_IP_ROB_Stalls_Bucket_4: 23
Non-critical_IP_ROB_Stalls_Bucket_4: 168265
Critical_IP_ROB_Stalls_Bucket_5: 3
Non-critical_IP_ROB_Stalls_Bucket_5: 146098
Critical_IP_ROB_Stalls_Bucket_6: 126
Non-critical_IP_ROB_Stalls_Bucket_6: 1171092
0 => IPs accounting for >50 percent of stalls, 1 => 55, 2 => 60, 3 => 65 and so on till 90.
percent50: inf num IPs:  1
percent55: inf num IPs: 1
percent60: inf num IPs: 1
percent65: inf num IPs: 1
percent70: inf num IPs: 1
percent75: inf num IPs: 1
percent80: inf num IPs: 1
percent85: inf num IPs: 1
percent90: inf num IPs: 1
Critical_ROB_Stalls_Percent_0_Bucket_0: 102
Non-critical_ROB_Stalls_Percent_0_Bucket_0: 493393
Critical_ROB_Stalls_Percent_0_Bucket_1: 3377
Non-critical_ROB_Stalls_Percent_0_Bucket_1: 606712
Critical_ROB_Stalls_Percent_0_Bucket_2: 11029
Non-critical_ROB_Stalls_Percent_0_Bucket_2: 407602
Critical_ROB_Stalls_Percent_0_Bucket_3: 20002
Non-critical_ROB_Stalls_Percent_0_Bucket_3: 235377
Critical_ROB_Stalls_Percent_0_Bucket_4: 14347
Non-critical_ROB_Stalls_Percent_0_Bucket_4: 153941
Critical_ROB_Stalls_Percent_0_Bucket_5: 15047
Non-critical_ROB_Stalls_Percent_0_Bucket_5: 131054
Critical_ROB_Stalls_Percent_0_Bucket_6: 231214
Non-critical_ROB_Stalls_Percent_0_Bucket_6: 940004
Critical_ROB_Stalls_Percent_1_Bucket_0: 102
Non-critical_ROB_Stalls_Percent_1_Bucket_0: 493393
Critical_ROB_Stalls_Percent_1_Bucket_1: 3377
Non-critical_ROB_Stalls_Percent_1_Bucket_1: 606712
Critical_ROB_Stalls_Percent_1_Bucket_2: 11029
Non-critical_ROB_Stalls_Percent_1_Bucket_2: 407602
Critical_ROB_Stalls_Percent_1_Bucket_3: 20002
Non-critical_ROB_Stalls_Percent_1_Bucket_3: 235377
Critical_ROB_Stalls_Percent_1_Bucket_4: 14347
Non-critical_ROB_Stalls_Percent_1_Bucket_4: 153941
Critical_ROB_Stalls_Percent_1_Bucket_5: 15047
Non-critical_ROB_Stalls_Percent_1_Bucket_5: 131054
Critical_ROB_Stalls_Percent_1_Bucket_6: 231214
Non-critical_ROB_Stalls_Percent_1_Bucket_6: 940004
Critical_ROB_Stalls_Percent_2_Bucket_0: 102
Non-critical_ROB_Stalls_Percent_2_Bucket_0: 493393
Critical_ROB_Stalls_Percent_2_Bucket_1: 3377
Non-critical_ROB_Stalls_Percent_2_Bucket_1: 606712
Critical_ROB_Stalls_Percent_2_Bucket_2: 11029
Non-critical_ROB_Stalls_Percent_2_Bucket_2: 407602
Critical_ROB_Stalls_Percent_2_Bucket_3: 20002
Non-critical_ROB_Stalls_Percent_2_Bucket_3: 235377
Critical_ROB_Stalls_Percent_2_Bucket_4: 14347
Non-critical_ROB_Stalls_Percent_2_Bucket_4: 153941
Critical_ROB_Stalls_Percent_2_Bucket_5: 15047
Non-critical_ROB_Stalls_Percent_2_Bucket_5: 131054
Critical_ROB_Stalls_Percent_2_Bucket_6: 231214
Non-critical_ROB_Stalls_Percent_2_Bucket_6: 940004
Critical_ROB_Stalls_Percent_3_Bucket_0: 102
Non-critical_ROB_Stalls_Percent_3_Bucket_0: 493393
Critical_ROB_Stalls_Percent_3_Bucket_1: 3377
Non-critical_ROB_Stalls_Percent_3_Bucket_1: 606712
Critical_ROB_Stalls_Percent_3_Bucket_2: 11029
Non-critical_ROB_Stalls_Percent_3_Bucket_2: 407602
Critical_ROB_Stalls_Percent_3_Bucket_3: 20002
Non-critical_ROB_Stalls_Percent_3_Bucket_3: 235377
Critical_ROB_Stalls_Percent_3_Bucket_4: 14347
Non-critical_ROB_Stalls_Percent_3_Bucket_4: 153941
Critical_ROB_Stalls_Percent_3_Bucket_5: 15047
Non-critical_ROB_Stalls_Percent_3_Bucket_5: 131054
Critical_ROB_Stalls_Percent_3_Bucket_6: 231214
Non-critical_ROB_Stalls_Percent_3_Bucket_6: 940004
Critical_ROB_Stalls_Percent_4_Bucket_0: 102
Non-critical_ROB_Stalls_Percent_4_Bucket_0: 493393
Critical_ROB_Stalls_Percent_4_Bucket_1: 3377
Non-critical_ROB_Stalls_Percent_4_Bucket_1: 606712
Critical_ROB_Stalls_Percent_4_Bucket_2: 11029
Non-critical_ROB_Stalls_Percent_4_Bucket_2: 407602
Critical_ROB_Stalls_Percent_4_Bucket_3: 20002
Non-critical_ROB_Stalls_Percent_4_Bucket_3: 235377
Critical_ROB_Stalls_Percent_4_Bucket_4: 14347
Non-critical_ROB_Stalls_Percent_4_Bucket_4: 153941
Critical_ROB_Stalls_Percent_4_Bucket_5: 15047
Non-critical_ROB_Stalls_Percent_4_Bucket_5: 131054
Critical_ROB_Stalls_Percent_4_Bucket_6: 231214
Non-critical_ROB_Stalls_Percent_4_Bucket_6: 940004
Critical_ROB_Stalls_Percent_5_Bucket_0: 102
Non-critical_ROB_Stalls_Percent_5_Bucket_0: 493393
Critical_ROB_Stalls_Percent_5_Bucket_1: 3377
Non-critical_ROB_Stalls_Percent_5_Bucket_1: 606712
Critical_ROB_Stalls_Percent_5_Bucket_2: 11029
Non-critical_ROB_Stalls_Percent_5_Bucket_2: 407602
Critical_ROB_Stalls_Percent_5_Bucket_3: 20002
Non-critical_ROB_Stalls_Percent_5_Bucket_3: 235377
Critical_ROB_Stalls_Percent_5_Bucket_4: 14347
Non-critical_ROB_Stalls_Percent_5_Bucket_4: 153941
Critical_ROB_Stalls_Percent_5_Bucket_5: 15047
Non-critical_ROB_Stalls_Percent_5_Bucket_5: 131054
Critical_ROB_Stalls_Percent_5_Bucket_6: 231214
Non-critical_ROB_Stalls_Percent_5_Bucket_6: 940004
Critical_ROB_Stalls_Percent_6_Bucket_0: 102
Non-critical_ROB_Stalls_Percent_6_Bucket_0: 493393
Critical_ROB_Stalls_Percent_6_Bucket_1: 3377
Non-critical_ROB_Stalls_Percent_6_Bucket_1: 606712
Critical_ROB_Stalls_Percent_6_Bucket_2: 11029
Non-critical_ROB_Stalls_Percent_6_Bucket_2: 407602
Critical_ROB_Stalls_Percent_6_Bucket_3: 20002
Non-critical_ROB_Stalls_Percent_6_Bucket_3: 235377
Critical_ROB_Stalls_Percent_6_Bucket_4: 14347
Non-critical_ROB_Stalls_Percent_6_Bucket_4: 153941
Critical_ROB_Stalls_Percent_6_Bucket_5: 15047
Non-critical_ROB_Stalls_Percent_6_Bucket_5: 131054
Critical_ROB_Stalls_Percent_6_Bucket_6: 231214
Non-critical_ROB_Stalls_Percent_6_Bucket_6: 940004
Critical_ROB_Stalls_Percent_7_Bucket_0: 102
Non-critical_ROB_Stalls_Percent_7_Bucket_0: 493393
Critical_ROB_Stalls_Percent_7_Bucket_1: 3377
Non-critical_ROB_Stalls_Percent_7_Bucket_1: 606712
Critical_ROB_Stalls_Percent_7_Bucket_2: 11029
Non-critical_ROB_Stalls_Percent_7_Bucket_2: 407602
Critical_ROB_Stalls_Percent_7_Bucket_3: 20002
Non-critical_ROB_Stalls_Percent_7_Bucket_3: 235377
Critical_ROB_Stalls_Percent_7_Bucket_4: 14347
Non-critical_ROB_Stalls_Percent_7_Bucket_4: 153941
Critical_ROB_Stalls_Percent_7_Bucket_5: 15047
Non-critical_ROB_Stalls_Percent_7_Bucket_5: 131054
Critical_ROB_Stalls_Percent_7_Bucket_6: 231214
Non-critical_ROB_Stalls_Percent_7_Bucket_6: 940004
Critical_ROB_Stalls_Percent_8_Bucket_0: 102
Non-critical_ROB_Stalls_Percent_8_Bucket_0: 493393
Critical_ROB_Stalls_Percent_8_Bucket_1: 3377
Non-critical_ROB_Stalls_Percent_8_Bucket_1: 606712
Critical_ROB_Stalls_Percent_8_Bucket_2: 11029
Non-critical_ROB_Stalls_Percent_8_Bucket_2: 407602
Critical_ROB_Stalls_Percent_8_Bucket_3: 20002
Non-critical_ROB_Stalls_Percent_8_Bucket_3: 235377
Critical_ROB_Stalls_Percent_8_Bucket_4: 14347
Non-critical_ROB_Stalls_Percent_8_Bucket_4: 153941
Critical_ROB_Stalls_Percent_8_Bucket_5: 15047
Non-critical_ROB_Stalls_Percent_8_Bucket_5: 131054
Critical_ROB_Stalls_Percent_8_Bucket_6: 231214
Non-critical_ROB_Stalls_Percent_8_Bucket_6: 940004
Average ROB occupancy Load Stall Begin: 188.499
Average ROB occupancy Load Stall End: 196.818
Min ROB occupancy Load Stall Begin: 1
Max ROB occupancy Load Stall Begin: 352
Min ROB occupancy Load Stall End: 1
Max ROB occupancy Load Stall End: 352
Average ROB occupancy Critical Load Stall Begin: 201.831
Average ROB occupancy Critical Load Stall End: 218.303
Min ROB occupancy Critical Load Stall Begin: 19
Max ROB occupancy Critical Load Stall Begin: 352
Min ROB occupancy Critical Load Stall End: 19
Max ROB occupancy Critical Load Stall End: 352
 ROB Load Stall Begin Bucket Count 0: 701979
 ROB Load Stall End Bucket Count 0: 493495
 ROB Critical Load Stall Begin Bucket Count 0: 14
 ROB Critical Load Stall End Bucket Count 0: 6
 ROB Load Stall Begin Bucket Count 1: 530247
 ROB Load Stall End Bucket Count 1: 610089
 ROB Critical Load Stall Begin Bucket Count 1: 3
 ROB Critical Load Stall End Bucket Count 1: 9
 ROB Load Stall Begin Bucket Count 2: 372222
 ROB Load Stall End Bucket Count 2: 418631
 ROB Critical Load Stall Begin Bucket Count 2: 13
 ROB Critical Load Stall End Bucket Count 2: 4
 ROB Load Stall Begin Bucket Count 3: 215886
 ROB Load Stall End Bucket Count 3: 255379
 ROB Critical Load Stall Begin Bucket Count 3: 25
 ROB Critical Load Stall End Bucket Count 3: 32
 ROB Load Stall Begin Bucket Count 4: 153100
 ROB Load Stall End Bucket Count 4: 168288
 ROB Critical Load Stall Begin Bucket Count 4: 0
 ROB Critical Load Stall End Bucket Count 4: 4
 ROB Load Stall Begin Bucket Count 5: 148084
 ROB Load Stall End Bucket Count 5: 146101
 ROB Critical Load Stall Begin Bucket Count 5: 2
 ROB Critical Load Stall End Bucket Count 5: 0
 ROB Load Stall Begin Bucket Count 6: 1141683
 ROB Load Stall End Bucket Count 6: 1171218
 ROB Critical Load Stall Begin Bucket Count 6: 32
 ROB Critical Load Stall End Bucket Count 6: 34
PIST Tag Read Accesses: 0
PIST Read Accesses: 0
PIST Tag Write Accesses: 0
PIST Write Accesses: 0
Criticality detector called times: 0
Max global_stall_cycles_count: 0
Threshold Modified: 0 times, factor: 0
Sturdy critical IP cache stats: 
 Unused entries: 0
CIC Tag Read Accesses: 0
CIC Read Accesses: 0
CIC Tag Write Accesses: 0
CIC Write Accesses: 0
Wobbly critical IP cache stats: 
 Unused entries: 0
CIC Tag Read Accesses: 159878731
CIC Read Accesses: 0
CIC Tag Write Accesses: 90678
CIC Write Accesses: 0
ITLB TOTAL     ACCESS:   10453921  HIT:    9956930  MISS:     496991  HIT %:    95.2459  MISS %:    4.75411   MPKI: 9.93982
ITLB LOAD TRANSLATION ACCESS:    8523643  HIT:    8514180  MISS:       9463  HIT %:     99.889  MISS %:   0.111021   MPKI: 0.18926
ITLB TRANSLATION FROM L1D PREFETCHER ACCESS:    1930278  HIT:    1442750  MISS:     487528  HIT %:    74.7431  MISS %:    25.2569   MPKI: 9.75056
ITLB PREFETCH  REQUESTED:          0  ISSUED:          0  USEFUL:     436370  USELESS:      51158
ITLB USEFUL LOAD PREFETCHES:     436370 PREFETCH ISSUED TO LOWER LEVEL:          0  ACCURACY: inf
ITLB TIMELY PREFETCHES:     436370 LATE PREFETCHES: 175 DROPPED PREFETCHES: 0
ITLB PREFETCHES SAME FILL-ORIGIN LEVEL: 0 DIFFERENT FILL-ORIGIN LEVEL: 0
ITLB AVERAGE MISS LATENCY: 30688.7 cycles
ITLB RQ	ACCESS:   15078524	FORWARD:          0	MERGED:    4572181	TO_CACHE:   10506343

DTLB TOTAL     ACCESS:   10881401  HIT:   10471121  MISS:     410280  HIT %:    96.2295  MISS %:    3.77047   MPKI: 8.2056
DTLB LOAD TRANSLATION ACCESS:   10881401  HIT:   10471121  MISS:     410280  HIT %:    96.2295  MISS %:    3.77047   MPKI: 8.2056
DTLB PREFETCH  REQUESTED:          0  ISSUED:          0  USEFUL:          0  USELESS:          0
DTLB USEFUL LOAD PREFETCHES:          0 PREFETCH ISSUED TO LOWER LEVEL:          0  ACCURACY: -nan
DTLB TIMELY PREFETCHES:          0 LATE PREFETCHES: 0 DROPPED PREFETCHES: 0
DTLB PREFETCHES SAME FILL-ORIGIN LEVEL: 0 DIFFERENT FILL-ORIGIN LEVEL: 0
DTLB AVERAGE MISS LATENCY: 16.9557 cycles
DTLB RQ	ACCESS:   16213185	FORWARD:          0	MERGED:    5250091	TO_CACHE:   10963094

STLB TOTAL     ACCESS:     909370  HIT:     889825  MISS:      19545  HIT %:    97.8507  MISS %:    2.14929   MPKI: 0.3909
STLB LOAD TRANSLATION ACCESS:     419568  HIT:     400381  MISS:      19187  HIT %:     95.427  MISS %:    4.57304   MPKI: 0.38374
STLB TRANSLATION FROM L1D PREFETCHER ACCESS:     489802  HIT:     489444  MISS:        358  HIT %:    99.9269  MISS %:  0.0730908   MPKI: 0.00716
STLB PREFETCH  REQUESTED:          0  ISSUED:          0  USEFUL:        156  USELESS:        203
STLB USEFUL LOAD PREFETCHES:        156 PREFETCH ISSUED TO LOWER LEVEL:          0  ACCURACY: inf
STLB TIMELY PREFETCHES:        156 LATE PREFETCHES: 0 DROPPED PREFETCHES: 0
STLB PREFETCHES SAME FILL-ORIGIN LEVEL: 0 DIFFERENT FILL-ORIGIN LEVEL: 0
STLB AVERAGE MISS LATENCY: 174.209 cycles
STLB RQ	ACCESS:     910615	FORWARD:          0	MERGED:       1245	TO_CACHE:     909370

STLB Hit, L1D data hit: 0
STLB Hit, L2C data hit: 0
STLB Hit, LLC data hit: 0
STLB Hit, LLC data miss: 0
STLB STLB hints to L2: 0
L1D TOTAL     ACCESS:   14101559  HIT:   12281886  MISS:    1819673  HIT %:    87.0959  MISS %:    12.9041   MPKI: 36.3935
L1D LOAD      ACCESS:    7381170  HIT:    6558615  MISS:     822555  HIT %:     88.856  MISS %:     11.144   MPKI: 16.4511
L1D RFO       ACCESS:    6718116  HIT:    5722614  MISS:     995502  HIT %:    85.1818  MISS %:    14.8182   MPKI: 19.91
L1D PREFETCH  ACCESS:       2273  HIT:        657  MISS:       1616  HIT %:    28.9045  MISS %:    71.0955   MPKI: 0.03232
L1D PREFETCH  REQUESTED:       6688  ISSUED:       6688  USEFUL:        261  USELESS:       1369
L1D USEFUL LOAD PREFETCHES:        261 PREFETCH ISSUED TO LOWER LEVEL:       1618  ACCURACY: 16.131
L1D TIMELY PREFETCHES:        261 LATE PREFETCHES: 0 DROPPED PREFETCHES: 0
L1D PREFETCHES SAME FILL-ORIGIN LEVEL: 1618 DIFFERENT FILL-ORIGIN LEVEL: 0
L1D AVERAGE MISS LATENCY: 267.042 cycles
L1D RQ	ACCESS:   11060851	FORWARD:          0	MERGED:    3515869	TO_CACHE:    7421933
L1D WQ	ACCESS:    8887929	FORWARD:     123049	MERGED:      96677	TO_CACHE:    8791252
L1D PQ	ACCESS:       3344	FORWARD:          0	MERGED:          0	TO_CACHE:       3344

L1D UNIQUE REGIONS ACCESSED: 0
L1D REGIONS CONFLICTS: 0
L1D Cross Page Prefetch Requests: 0
L1D Same Page Prefetch Requests: 289011
L1D ROI Sum of L1D PQ occupancy: 44177
L1D PREFETCHES PUSHED FROM L2C: 0
L1I TOTAL     ACCESS:   14997087  HIT:   11796640  MISS:    3200447  HIT %:    78.6595  MISS %:    21.3405   MPKI: 64.0089
L1I LOAD      ACCESS:    9943515  HIT:    9929753  MISS:      13762  HIT %:    99.8616  MISS %:   0.138402   MPKI: 0.27524
L1I PREFETCH  ACCESS:    5053572  HIT:    1866887  MISS:    3186685  HIT %:    36.9419  MISS %:    63.0581   MPKI: 63.7337
L1I PREFETCH  REQUESTED:    5329703  ISSUED:    5325002  USEFUL:    2656602  USELESS:     530090
L1I USEFUL LOAD PREFETCHES:    2656602 PREFETCH ISSUED TO LOWER LEVEL:    3191733  ACCURACY: 83.2338
L1I TIMELY PREFETCHES:    2656602 LATE PREFETCHES: 5046 DROPPED PREFETCHES: 0
L1I PREFETCHES SAME FILL-ORIGIN LEVEL: 3191733 DIFFERENT FILL-ORIGIN LEVEL: 0
L1I AVERAGE MISS LATENCY: 147503 cycles
L1I RQ	ACCESS:   14221698	FORWARD:          0	MERGED:    4275309	TO_CACHE:    9946389
L1I PQ	ACCESS:    5325002	FORWARD:          0	MERGED:     192867	TO_CACHE:    5132135

BTB TOTAL     ACCESS:    5297027  HIT:    5037183  MISS:     259844  HIT %:    95.0945  MISS %:    4.90547   MPKI: 5.19688
BTB BRANCH_DIRECT_JUMP	ACCESS:     445734  HIT:     443706  MISS:       2028
BTB BRANCH_INDIRECT	ACCESS:      48875  HIT:      48765  MISS:        110
BTB BRANCH_CONDITIONAL	ACCESS:    2967685  HIT:    2961525  MISS:       6160
BTB BRANCH_DIRECT_CALL	ACCESS:     758262  HIT:     754131  MISS:       4131
BTB BRANCH_INDIRECT_CALL	ACCESS:     159103  HIT:     129311  MISS:      29792
BTB BRANCH_RETURN	ACCESS:     917368  HIT:     699745  MISS:     217623
BTB BRANCH_OTHER ACCESS:          0  HIT:          0  MISS:          0

L2C TOTAL     ACCESS:    7327617  HIT:    5488730  MISS:    1838887  HIT %:    74.9047  MISS %:    25.0953   MPKI: 36.7777
L2C LOAD      ACCESS:     831264  HIT:     201176  MISS:     630088  HIT %:    24.2012  MISS %:    75.7988   MPKI: 12.6018
L2C DATA LOAD MPKI: 12.5446
L2C INSTRUCTION LOAD MPKI: 0.05714
L2C RFO       ACCESS:     995489  HIT:      39529  MISS:     955960  HIT %:    3.97081  MISS %:    96.0292   MPKI: 19.1192
L2C PREFETCH  ACCESS:    4307320  HIT:    4114635  MISS:     192685  HIT %:    95.5266  MISS %:    4.47343   MPKI: 3.8537
L2C DATA PREFETCH MPKI: 0.90454
L2C INSTRUCTION PREFETCH MPKI: 2.94916
L2C WRITEBACK ACCESS:    1171923  HIT:    1121400  MISS:      50523  HIT %:    95.6889  MISS %:    4.31112   MPKI: 1.01046
L2C LOAD TRANSLATION ACCESS:      21101  HIT:      11876  MISS:       9225  HIT %:    56.2817  MISS %:    43.7183   MPKI: 0.1845
L2C TRANSLATION FROM L1D PREFETCHER ACCESS:        520  HIT:        114  MISS:        406  HIT %:    21.9231  MISS %:    78.0769   MPKI: 0.00812
L2C PREFETCH  REQUESTED:    2637351  ISSUED:    2637351  USEFUL:       2045  USELESS:     191707
L2C USEFUL LOAD PREFETCHES:       2045 PREFETCH ISSUED TO LOWER LEVEL:     192705  ACCURACY: 1.06121
L2C TIMELY PREFETCHES:       2045 LATE PREFETCHES: 20 DROPPED PREFETCHES: 0
L2C PREFETCHES SAME FILL-ORIGIN LEVEL: 45179 DIFFERENT FILL-ORIGIN LEVEL: 0
L2C AVERAGE MISS LATENCY: 162.574 cycles
L2C RQ	ACCESS:    1848392	FORWARD:          0	MERGED:          0	TO_CACHE:    1848374
L2C WQ	ACCESS:    1171923	FORWARD:         18	MERGED:          0	TO_CACHE:    1171923
L2C PQ	ACCESS:    5830702	FORWARD:          0	MERGED:    1519954	TO_CACHE:    4310748

L2C Instructions Evicting Data 139085
L2C Translations Evicting Data 8807
L2C Data Evicting Data 1484971
L2C Instructions Evicting Instructions 10460
L2C Translations Evicting Instructions 789
L2C Data Evicting Instructions 134829
L2C Instructions Evicting Translations 770
L2C Translations Evicting Translations 35
L2C Data Evicting Translations 8618
L2C Dense regions hint from L2: 0
PSCL5 TOTAL     ACCESS:      19545  HIT:      19545  MISS:          0  HIT %:        100  MISS %:          0   MPKI: 0
PSCL5 LOAD TRANSLATION ACCESS:      19187  HIT:      19187  MISS:          0  HIT %:        100  MISS %:          0   MPKI: 0
PSCL5 TRANSLATION FROM L1D PREFETCHER ACCESS:        358  HIT:        358  MISS:          0  HIT %:        100  MISS %:          0   MPKI: 0
PSCL5 PREFETCH  REQUESTED:          0  ISSUED:          0  USEFUL:          0  USELESS:          0
PSCL5 USEFUL LOAD PREFETCHES:          0 PREFETCH ISSUED TO LOWER LEVEL:          0  ACCURACY: -nan
PSCL5 TIMELY PREFETCHES:          0 LATE PREFETCHES: 0 DROPPED PREFETCHES: 0
PSCL5 PREFETCHES SAME FILL-ORIGIN LEVEL: 0 DIFFERENT FILL-ORIGIN LEVEL: 0

PSCL4 TOTAL     ACCESS:      17453  HIT:      17428  MISS:         25  HIT %:    99.8568  MISS %:   0.143242   MPKI: 0.0005
PSCL4 LOAD TRANSLATION ACCESS:      17105  HIT:      17080  MISS:         25  HIT %:    99.8538  MISS %:   0.146156   MPKI: 0.0005
PSCL4 TRANSLATION FROM L1D PREFETCHER ACCESS:        348  HIT:        348  MISS:          0  HIT %:        100  MISS %:          0   MPKI: 0
PSCL4 PREFETCH  REQUESTED:          0  ISSUED:          0  USEFUL:          0  USELESS:          0
PSCL4 USEFUL LOAD PREFETCHES:          0 PREFETCH ISSUED TO LOWER LEVEL:          0  ACCURACY: -nan
PSCL4 TIMELY PREFETCHES:          0 LATE PREFETCHES: 0 DROPPED PREFETCHES: 0
PSCL4 PREFETCHES SAME FILL-ORIGIN LEVEL: 0 DIFFERENT FILL-ORIGIN LEVEL: 0

PSCL3 TOTAL     ACCESS:      19538  HIT:      19488  MISS:         50  HIT %:    99.7441  MISS %:   0.255912   MPKI: 0.001
PSCL3 LOAD TRANSLATION ACCESS:      19200  HIT:      19150  MISS:         50  HIT %:    99.7396  MISS %:   0.260417   MPKI: 0.001
PSCL3 TRANSLATION FROM L1D PREFETCHER ACCESS:        338  HIT:        338  MISS:          0  HIT %:        100  MISS %:          0   MPKI: 0
PSCL3 PREFETCH  REQUESTED:          0  ISSUED:          0  USEFUL:          0  USELESS:          0
PSCL3 USEFUL LOAD PREFETCHES:          0 PREFETCH ISSUED TO LOWER LEVEL:          0  ACCURACY: -nan
PSCL3 TIMELY PREFETCHES:          0 LATE PREFETCHES: 0 DROPPED PREFETCHES: 0
PSCL3 PREFETCHES SAME FILL-ORIGIN LEVEL: 0 DIFFERENT FILL-ORIGIN LEVEL: 0

PSCL2 TOTAL     ACCESS:      19545  HIT:      17515  MISS:       2030  HIT %:    89.6137  MISS %:    10.3863   MPKI: 0.0406
PSCL2 LOAD TRANSLATION ACCESS:      19322  HIT:      17292  MISS:       2030  HIT %:    89.4938  MISS %:    10.5062   MPKI: 0.0406
PSCL2 TRANSLATION FROM L1D PREFETCHER ACCESS:        223  HIT:        223  MISS:          0  HIT %:        100  MISS %:          0   MPKI: 0
PSCL2 PREFETCH  REQUESTED:          0  ISSUED:          0  USEFUL:          0  USELESS:          0
PSCL2 USEFUL LOAD PREFETCHES:          0 PREFETCH ISSUED TO LOWER LEVEL:          0  ACCURACY: -nan
PSCL2 TIMELY PREFETCHES:          0 LATE PREFETCHES: 0 DROPPED PREFETCHES: 0
PSCL2 PREFETCHES SAME FILL-ORIGIN LEVEL: 0 DIFFERENT FILL-ORIGIN LEVEL: 0

LLC TOTAL     ACCESS:    2881095  HIT:    1406636  MISS:    1474459  HIT %:     48.823  MISS %:     51.177   MPKI: 29.4892
LLC LOAD      ACCESS:     630068  HIT:     290022  MISS:     340046  HIT %:    46.0303  MISS %:    53.9697   MPKI: 6.80092
LLC RFO       ACCESS:     955959  HIT:     229610  MISS:     726349  HIT %:    24.0188  MISS %:    75.9812   MPKI: 14.527
LLC PREFETCH  ACCESS:     192705  HIT:     182281  MISS:      10424  HIT %:    94.5907  MISS %:     5.4093   MPKI: 0.20848
LLC WRITEBACK ACCESS:    1092732  HIT:     701910  MISS:     390822  HIT %:    64.2344  MISS %:    35.7656   MPKI: 7.81644
LLC LOAD TRANSLATION ACCESS:       9225  HIT:       2674  MISS:       6551  HIT %:    28.9864  MISS %:    71.0136   MPKI: 0.13102
LLC TRANSLATION FROM L1D PREFETCHER ACCESS:        406  HIT:        139  MISS:        267  HIT %:    34.2365  MISS %:    65.7635   MPKI: 0.00534
LLC PREFETCH  REQUESTED:          0  ISSUED:          0  USEFUL:        402  USELESS:      14655
LLC USEFUL LOAD PREFETCHES:        402 PREFETCH ISSUED TO LOWER LEVEL:      10424  ACCURACY: 3.85649
LLC TIMELY PREFETCHES:        402 LATE PREFETCHES: 0 DROPPED PREFETCHES: 0
LLC PREFETCHES SAME FILL-ORIGIN LEVEL: 0 DIFFERENT FILL-ORIGIN LEVEL: 0
LLC AVERAGE MISS LATENCY: 164.64 cycles
LLC RQ	ACCESS:    1595659	FORWARD:          0	MERGED:          0	TO_CACHE:    1595658
LLC WQ	ACCESS:    1092732	FORWARD:          1	MERGED:          0	TO_CACHE:    1092732
LLC PQ	ACCESS:     192705	FORWARD:          0	MERGED:          0	TO_CACHE:     192705

LLC Dense regions hint to LLC: 0

RAW hits: 1395884
Loads Generated: 12456735
Loads sent to L1D: 11060851
Stores Generated: 8887926
Stores sent to L1D: 8887929
Major fault: 0 Minor fault: 23677
Allocated PAGES: 23677
I-Shadow cache 408 bytes
Touched + WorthPF tables 6144 bytes 
MMA filter 174 bytes 
FNL filter 272 bytes 
TOTAL PREFETCHER STORAGE SIZE: 25174 bytes
CPU 0 L1I next line prefetcher final stats

stream: 
stream:times selected: 244403
stream:pref_filled: 44306
stream:pref_useful: 20114
stream:pref_late: 11944
stream:misses: 3899
stream:misses_by_poll: 0

CS: 
CS:times selected: 88255
CS:pref_filled: 52195
CS:pref_useful: 50932
CS:pref_late: 94
CS:misses: 948
CS:misses_by_poll: 0

CPLX: 
CPLX:times selected: 154231
CPLX:pref_filled: 67165
CPLX:pref_useful: 37990
CPLX:pref_late: 393
CPLX:misses: 15215
CPLX:misses_by_poll: 0

NL_L1: 
NL:times selected: 242
NL:pref_filled: 84
NL:pref_useful: 27
NL:pref_late: 6
NL:misses: 42
NL:misses_by_poll: 0

total selections: 487131
total_filled: 1616
total_useful: 261
total_late: 12622
total_polluted: 0
total_misses_after_warmup: 159
conflicts: 5
Degree Incremented Times: 3298
Degree Decremented Times: 890

L1 IP Table Write Accesses: 2924
L1 IP Table Read Accesses: 2919
L1 RST Write Accesses: 2129
L1 RST Read Accesses: 4258
L1 CSPT Write Accesses: 2129
L1 CSPT Read Accesses: 6803
L1 RR Filter Tag Write Accesses: 3344
L1 RR Filter Tag Read Accesses: 111968
L1 IP Table Tag Write Accesses: 2928
L1 IP Table Tag Read Accesses: 2928
L1 RST Tag Write Accesses: 0
L1 RST Tag Read Accesses: 17830
L1 RR Filter Write Accesses: 0
L1 RR Filter Read Accesses: 3561
test: 41572
L2 IP Table Read Accesses: 2688387
L2 IP Table Write Accesses: 5370039
L2 IP Table Tag Read Accesses: 2685619
L2 IP Table Tag Write Accesses: 2685619

DRAM Statistics
 CHANNEL 0
 RQ ROW_BUFFER_HIT:     477893  ROW_BUFFER_MISS:     605729
 DBUS_CONGESTED:        526
 WQ ROW_BUFFER_HIT:     339409  ROW_BUFFER_MISS:     408957  FULL:       9265

 AVG_CONGESTED_CYCLE: 3
 All warmup complete: 2
Channel 0 Bank busy for read cycles: 0
Channel 0 Bank busy for write cycles: 0
Channel 0
Rank 0
0banks busy for read cycles: 39828110
0banks busy for write cycles: 84602
1banks busy for read cycles: 41726446
1banks busy for write cycles: 19928409
2banks busy for read cycles: 9274836
2banks busy for write cycles: 8207865
3banks busy for read cycles: 763986
3banks busy for write cycles: 3424413
4banks busy for read cycles: 1312722
4banks busy for write cycles: 1763450
5banks busy for read cycles: 363008
5banks busy for write cycles: 1144176
6banks busy for read cycles: 489706
6banks busy for write cycles: 909955
7banks busy for read cycles: 900725
7banks busy for write cycles: 1340333
8banks busy for read cycles: 4649966
8banks busy for write cycles: 8413692

CPU 0 Branch Prediction Accuracy: 99.8317% MPKI: 0.27564 Average ROB Occupancy at Mispredict: 116.834
Branch types
NOT_BRANCH: 41810970 83.6219%
BRANCH_DIRECT_JUMP: 445734 0.891468%
BRANCH_INDIRECT: 48875 0.09775%
BRANCH_CONDITIONAL: 5859370 11.7187%
BRANCH_DIRECT_CALL: 758262 1.51652%
BRANCH_INDIRECT_CALL: 159103 0.318206%
BRANCH_RETURN: 917368 1.83474%
BRANCH_OTHER: 0 0%

DRAM PAGES: 1048576
Allocated PAGES: 23677
